************************************************************************
* auCdl Netlist:
*
* Library Name:  SMIC_MEMORY
* Top Cell Name: S55NLLGDPH_X512Y8D12_BW
* Version:  V1.3
* View Name:     schematic
* Netlisted on:  Sat May 18 11:13:00 CST 2024
************************************************************************
*.BIPOLAR
*.RESI = 2000
*.RESVAL
*.CAPVAL
*.DIOPERI
*.DIOAREA
*.EQUATION
*.SCALE METER
*.MEGA
.PARAM


************************************************************************
* Library Name:  SMIC_MEMORY
* Cell Name:    S55NLLGDPH_X512Y8D12_BW_STWL_DEC
* View Name:    schematic
************************************************************************

.SUBCKT S55NLLGDPH_X512Y8D12_BW_STWL_DEC EMCLK STWL VDD VSS
M0 VSS 2 6 VSS N12LL L=6E-08 W=1E-06
M1 4 4 VSS VSS N12LL L=6E-08 W=4E-07
M2 9 8 EMCLK VSS N12LL L=6E-08 W=8E-07
M3 10 9 VSS VSS N12LL L=6E-08 W=3.5E-07
M4 VSS 9 10 VSS N12LL L=6E-08 W=3.5E-07
M5 11 10 VSS VSS N12LL L=6E-08 W=1.5E-06
M6 VSS 10 11 VSS N12LL L=6E-08 W=1.5E-06
M7 STWL 11 VSS VSS N12LL L=6E-08 W=2E-06
M8 VSS 11 STWL VSS N12LL L=6E-08 W=2E-06
M9 STWL 11 VDD VDD PHVT12LL L=6E-08 W=2.5E-06
M10 VDD 11 STWL VDD PHVT12LL L=6E-08 W=2.5E-06
M11 STWL 11 VDD VDD PHVT12LL L=6E-08 W=2.5E-06
M12 VDD 11 STWL VDD PHVT12LL L=6E-08 W=2.5E-06
M13 9 8 VDD VDD P12LL L=6E-08 W=4E-07
M14 8 4 VDD VDD P12LL L=6E-08 W=1E-06
M15 9 6 EMCLK VDD P12LL L=6E-08 W=4E-07
M16 VDD 2 2 VDD P12LL L=6E-08 W=4E-07
M17 10 9 VDD VDD P12LL L=6E-08 W=7E-07
M18 VDD 9 10 VDD P12LL L=6E-08 W=7E-07
M19 11 10 VDD VDD P12LL L=6E-08 W=1.5E-06
M20 VDD 10 11 VDD P12LL L=6E-08 W=1.5E-06
.ENDS

************************************************************************
* Library Name:  SMIC_MEMORY
* Cell Name:    S55NLLGDPH_X512Y8D12_BW_BLSTRAP_B
* View Name:    schematic
************************************************************************

.SUBCKT S55NLLGDPH_X512Y8D12_BW_BLSTRAP_B BL BLX VDD VSS
MTA1 BLX VSS NET22 VSS DPNPGBHVT W=100.00N L=85.000N M=1
MTA0 BL VSS NET26 VSS DPNPGAHVT W=100.0N L=85.000N M=1
MTD1 NET31 VSS VSS VSS DPNPDHVT W=310.00N L=70.00N M=1
MTL1 NET33 VSS VDD VDD DPPLHVT W=85.000N L=70.00N M=1
.ENDS

************************************************************************
* Library Name:  SMIC_MEMORY
* Cell Name:    S55NLLGDPH_X512Y8D12_BW_EDGECELL
* View Name:    schematic
************************************************************************

.SUBCKT S55NLLGDPH_X512Y8D12_BW_EDGECELL BA BB BXA BXB VDD VSS WLA
MTD0 VSS BCN BC VSS DPNPDHVT W=310.00N L=70.00N M=1
MM2 BCN BC VSS VSS DPNPDHVT W=310.00N L=70.00N M=1
MM1 BCN BC VDD VDD DPPLHVT W=85.000N L=70.00N M=1
MTL0 VDD BCN BC VDD DPPLHVT W=85.000N L=70.00N M=1
MTA1 BXA WLA BCN VSS DPNPGBHVT W=100.00N L=85.000N M=1
MN1 BC VSS BB VSS DPNPGBHVT W=100.00N L=85.000N M=1
MM0 BXB VSS BCN VSS DPNPGAHVT W=100.0N L=85.000N M=1
MTA0 BC WLA BA VSS DPNPGAHVT W=100.0N L=85.000N M=1
.ENDS

************************************************************************
* Library Name:  SMIC_MEMORY
* Cell Name:    S55NLLGDPH_X512Y8D12_BW_EDGECELL8B
* View Name:    schematic
************************************************************************

.SUBCKT S55NLLGDPH_X512Y8D12_BW_EDGECELL8B BA0 BA7 BXA0 BXA7 VDD VSS WLA[7] WLA[6] WLA[5] WLA[4]
+WLA[3] WLA[2] WLA[1] WLA[0]
XI22 BA7 NET43 BXA7 NET42 VDD VSS WLA[7] S55NLLGDPH_X512Y8D12_BW_EDGECELL
XI19 NET52 NET85 NET51 NET84 VDD VSS WLA[4] S55NLLGDPH_X512Y8D12_BW_EDGECELL
XI18 NET52 NET57 NET51 NET56 VDD VSS WLA[3] S55NLLGDPH_X512Y8D12_BW_EDGECELL
XI16 NET73 NET64 NET72 NET63 VDD VSS WLA[1] S55NLLGDPH_X512Y8D12_BW_EDGECELL
XI17 NET73 NET57 NET72 NET56 VDD VSS WLA[2] S55NLLGDPH_X512Y8D12_BW_EDGECELL
XI21 NET80 NET43 NET79 NET42 VDD VSS WLA[6] S55NLLGDPH_X512Y8D12_BW_EDGECELL
XI20 NET80 NET85 NET79 NET84 VDD VSS WLA[5] S55NLLGDPH_X512Y8D12_BW_EDGECELL
XI15 BA0 NET64 BXA0 NET63 VDD VSS WLA[0] S55NLLGDPH_X512Y8D12_BW_EDGECELL
.ENDS

************************************************************************
* Library Name:  SMIC_MEMORY
* Cell Name:    S55NLLGDPH_X512Y8D12_BW_EDGECELL66B_RED_LEFT
* View Name:    schematic
************************************************************************

.SUBCKT S55NLLGDPH_X512Y8D12_BW_EDGECELL66B_RED_LEFT RWL[0] RWL[1] VDD VSS WLA[63] WLA[62] WLA[61] WLA[60] WLA[59] WLA[58]
+WLA[57] WLA[56] WLA[55] WLA[54] WLA[53] WLA[52] WLA[51] WLA[50] WLA[49] WLA[48]
+WLA[47] WLA[46] WLA[45] WLA[44] WLA[43] WLA[42] WLA[41] WLA[40] WLA[39] WLA[38]
+WLA[37] WLA[36] WLA[35] WLA[34] WLA[33] WLA[32] WLA[31] WLA[30] WLA[29] WLA[28]
+WLA[27] WLA[26] WLA[25] WLA[24] WLA[23] WLA[22] WLA[21] WLA[20] WLA[19] WLA[18]
+WLA[17] WLA[16] WLA[15] WLA[14] WLA[13] WLA[12] WLA[11] WLA[10] WLA[9] WLA[8]
+WLA[7] WLA[6] WLA[5] WLA[4] WLA[3] WLA[2] WLA[1] WLA[0]
XI0 NET01 NET61 VDD VSS S55NLLGDPH_X512Y8D12_BW_BLSTRAP_B
XI1 NET01 NET31 NET61 NET91 VDD VSS RWL[0] S55NLLGDPH_X512Y8D12_BW_EDGECELL
XI2 NET02 NET31 NET62 NET91 VDD VSS RWL[1] S55NLLGDPH_X512Y8D12_BW_EDGECELL
XI3 NET02 NET32 NET62 NET92 VDD VSS WLA[7] WLA[6] WLA[5] WLA[4]
+WLA[3] WLA[2] WLA[1] WLA[0] S55NLLGDPH_X512Y8D12_BW_EDGECELL8B
XI4 NET03 NET32 NET63 NET92 VDD VSS WLA[15] WLA[14] WLA[13] WLA[12]
+WLA[11] WLA[10] WLA[9] WLA[8] S55NLLGDPH_X512Y8D12_BW_EDGECELL8B
XI5 NET03 NET33 NET63 NET93 VDD VSS WLA[23] WLA[22] WLA[21] WLA[20]
+WLA[19] WLA[18] WLA[17] WLA[16] S55NLLGDPH_X512Y8D12_BW_EDGECELL8B
XI6 NET04 NET33 NET64 NET93 VDD VSS WLA[31] WLA[30] WLA[29] WLA[28]
+WLA[27] WLA[26] WLA[25] WLA[24] S55NLLGDPH_X512Y8D12_BW_EDGECELL8B
XI7 NET04 NET34 NET64 NET94 VDD VSS WLA[39] WLA[38] WLA[37] WLA[36]
+WLA[35] WLA[34] WLA[33] WLA[32] S55NLLGDPH_X512Y8D12_BW_EDGECELL8B
XI8 NET05 NET34 NET65 NET94 VDD VSS WLA[47] WLA[46] WLA[45] WLA[44]
+WLA[43] WLA[42] WLA[41] WLA[40] S55NLLGDPH_X512Y8D12_BW_EDGECELL8B
XI9 NET05 NET35 NET65 NET95 VDD VSS WLA[55] WLA[54] WLA[53] WLA[52]
+WLA[51] WLA[50] WLA[49] WLA[48] S55NLLGDPH_X512Y8D12_BW_EDGECELL8B
XI10 NET06 NET35 NET66 NET95 VDD VSS WLA[63] WLA[62] WLA[61] WLA[60]
+WLA[59] WLA[58] WLA[57] WLA[56] S55NLLGDPH_X512Y8D12_BW_EDGECELL8B
XI11 NET06 NET66 VDD VSS S55NLLGDPH_X512Y8D12_BW_BLSTRAP_B
.ENDS

************************************************************************
* Library Name:  SMIC_MEMORY
* Cell Name:    S55NLLGDPH_X512Y8D12_BW_BLSTRAP
* View Name:    schematic
************************************************************************

.SUBCKT S55NLLGDPH_X512Y8D12_BW_BLSTRAP BL BLX VDD VSS
MTA1 BL VSS NET22 VSS DPNPGBHVT W=100.00N L=85.000N M=1
MTA0 BLX VSS NET26 VSS DPNPGAHVT W=100.0N L=85.000N M=1
MTD1 NET31 VSS VSS VSS DPNPDHVT W=310.00N L=70.00N M=1
MTL1 NET33 VSS VDD VDD DPPLHVT W=85.000N L=70.00N M=1
.ENDS

************************************************************************
* Library Name:  SMIC_MEMORY
* Cell Name:    S55NLLGDPH_X512Y8D12_BW_EDGECELL8A
* View Name:    schematic
************************************************************************

.SUBCKT S55NLLGDPH_X512Y8D12_BW_EDGECELL8A BB0 BB7 BXB0 BXB7 VDD VSS WLA[7] WLA[6] WLA[5] WLA[4]
+WLA[3] WLA[2] WLA[1] WLA[0]
XI19 NET52 NET43 NET51 NET42 VDD VSS WLA[4] S55NLLGDPH_X512Y8D12_BW_EDGECELL
XI20 NET52 NET64 NET51 NET63 VDD VSS WLA[5] S55NLLGDPH_X512Y8D12_BW_EDGECELL
XI22 NET59 BB7 NET58 BXB7 VDD VSS WLA[7] S55NLLGDPH_X512Y8D12_BW_EDGECELL
XI21 NET59 NET64 NET58 NET63 VDD VSS WLA[6] S55NLLGDPH_X512Y8D12_BW_EDGECELL
XI17 NET80 NET71 NET79 NET70 VDD VSS WLA[2] S55NLLGDPH_X512Y8D12_BW_EDGECELL
XI18 NET80 NET43 NET79 NET42 VDD VSS WLA[3] S55NLLGDPH_X512Y8D12_BW_EDGECELL
XI16 NET87 NET71 NET86 NET70 VDD VSS WLA[1] S55NLLGDPH_X512Y8D12_BW_EDGECELL
XI15 NET87 BB0 NET86 BXB0 VDD VSS WLA[0] S55NLLGDPH_X512Y8D12_BW_EDGECELL
.ENDS

************************************************************************
* Library Name:  SMIC_MEMORY
* Cell Name:    S55NLLGDPH_X512Y8D12_BW_EDGECELL64A_LEFT
* View Name:    schematic
************************************************************************

.SUBCKT S55NLLGDPH_X512Y8D12_BW_EDGECELL64A_LEFT VDD VSS WLA[63] WLA[62] WLA[61] WLA[60] WLA[59] WLA[58] WLA[57] WLA[56]
+WLA[55] WLA[54] WLA[53] WLA[52] WLA[51] WLA[50] WLA[49] WLA[48] WLA[47] WLA[46]
+WLA[45] WLA[44] WLA[43] WLA[42] WLA[41] WLA[40] WLA[39] WLA[38] WLA[37] WLA[36]
+WLA[35] WLA[34] WLA[33] WLA[32] WLA[31] WLA[30] WLA[29] WLA[28] WLA[27] WLA[26]
+WLA[25] WLA[24] WLA[23] WLA[22] WLA[21] WLA[20] WLA[19] WLA[18] WLA[17] WLA[16]
+WLA[15] WLA[14] WLA[13] WLA[12] WLA[11] WLA[10] WLA[9] WLA[8] WLA[7] WLA[6]
+WLA[5] WLA[4] WLA[3] WLA[2] WLA[1] WLA[0]
XI0 NET01 NET61 VDD VSS S55NLLGDPH_X512Y8D12_BW_BLSTRAP
XI1 NET01 NET31 NET61 NET91 VDD VSS WLA[7] WLA[6] WLA[5] WLA[4]
+WLA[3] WLA[2] WLA[1] WLA[0] S55NLLGDPH_X512Y8D12_BW_EDGECELL8A
XI2 NET02 NET31 NET62 NET91 VDD VSS WLA[15] WLA[14] WLA[13] WLA[12]
+WLA[11] WLA[10] WLA[9] WLA[8] S55NLLGDPH_X512Y8D12_BW_EDGECELL8A
XI3 NET02 NET32 NET62 NET92 VDD VSS WLA[23] WLA[22] WLA[21] WLA[20]
+WLA[19] WLA[18] WLA[17] WLA[16] S55NLLGDPH_X512Y8D12_BW_EDGECELL8A
XI4 NET03 NET32 NET63 NET92 VDD VSS WLA[31] WLA[30] WLA[29] WLA[28]
+WLA[27] WLA[26] WLA[25] WLA[24] S55NLLGDPH_X512Y8D12_BW_EDGECELL8A
XI5 NET03 NET33 NET63 NET93 VDD VSS WLA[39] WLA[38] WLA[37] WLA[36]
+WLA[35] WLA[34] WLA[33] WLA[32] S55NLLGDPH_X512Y8D12_BW_EDGECELL8A
XI6 NET04 NET33 NET64 NET93 VDD VSS WLA[47] WLA[46] WLA[45] WLA[44]
+WLA[43] WLA[42] WLA[41] WLA[40] S55NLLGDPH_X512Y8D12_BW_EDGECELL8A
XI7 NET04 NET34 NET64 NET94 VDD VSS WLA[55] WLA[54] WLA[53] WLA[52]
+WLA[51] WLA[50] WLA[49] WLA[48] S55NLLGDPH_X512Y8D12_BW_EDGECELL8A
XI8 NET05 NET34 NET65 NET94 VDD VSS WLA[63] WLA[62] WLA[61] WLA[60]
+WLA[59] WLA[58] WLA[57] WLA[56] S55NLLGDPH_X512Y8D12_BW_EDGECELL8A
XI9 NET05 NET65 VDD VSS S55NLLGDPH_X512Y8D12_BW_BLSTRAP
.ENDS

************************************************************************
* Library Name:  SMIC_MEMORY
* Cell Name:    S55NLLGDPH_X512Y8D12_BW_EDGECELL64B_LEFT
* View Name:    schematic
************************************************************************

.SUBCKT S55NLLGDPH_X512Y8D12_BW_EDGECELL64B_LEFT VDD VSS WLA[63] WLA[62] WLA[61] WLA[60] WLA[59] WLA[58] WLA[57] WLA[56]
+WLA[55] WLA[54] WLA[53] WLA[52] WLA[51] WLA[50] WLA[49] WLA[48] WLA[47] WLA[46]
+WLA[45] WLA[44] WLA[43] WLA[42] WLA[41] WLA[40] WLA[39] WLA[38] WLA[37] WLA[36]
+WLA[35] WLA[34] WLA[33] WLA[32] WLA[31] WLA[30] WLA[29] WLA[28] WLA[27] WLA[26]
+WLA[25] WLA[24] WLA[23] WLA[22] WLA[21] WLA[20] WLA[19] WLA[18] WLA[17] WLA[16]
+WLA[15] WLA[14] WLA[13] WLA[12] WLA[11] WLA[10] WLA[9] WLA[8] WLA[7] WLA[6]
+WLA[5] WLA[4] WLA[3] WLA[2] WLA[1] WLA[0]
XI0 NET01 NET61 VDD VSS S55NLLGDPH_X512Y8D12_BW_BLSTRAP_B
XI1 NET01 NET31 NET61 NET91 VDD VSS WLA[7] WLA[6] WLA[5] WLA[4]
+WLA[3] WLA[2] WLA[1] WLA[0] S55NLLGDPH_X512Y8D12_BW_EDGECELL8B
XI2 NET02 NET31 NET62 NET91 VDD VSS WLA[15] WLA[14] WLA[13] WLA[12]
+WLA[11] WLA[10] WLA[9] WLA[8] S55NLLGDPH_X512Y8D12_BW_EDGECELL8B
XI3 NET02 NET32 NET62 NET92 VDD VSS WLA[23] WLA[22] WLA[21] WLA[20]
+WLA[19] WLA[18] WLA[17] WLA[16] S55NLLGDPH_X512Y8D12_BW_EDGECELL8B
XI4 NET03 NET32 NET63 NET92 VDD VSS WLA[31] WLA[30] WLA[29] WLA[28]
+WLA[27] WLA[26] WLA[25] WLA[24] S55NLLGDPH_X512Y8D12_BW_EDGECELL8B
XI5 NET03 NET33 NET63 NET93 VDD VSS WLA[39] WLA[38] WLA[37] WLA[36]
+WLA[35] WLA[34] WLA[33] WLA[32] S55NLLGDPH_X512Y8D12_BW_EDGECELL8B
XI6 NET04 NET33 NET64 NET93 VDD VSS WLA[47] WLA[46] WLA[45] WLA[44]
+WLA[43] WLA[42] WLA[41] WLA[40] S55NLLGDPH_X512Y8D12_BW_EDGECELL8B
XI7 NET04 NET34 NET64 NET94 VDD VSS WLA[55] WLA[54] WLA[53] WLA[52]
+WLA[51] WLA[50] WLA[49] WLA[48] S55NLLGDPH_X512Y8D12_BW_EDGECELL8B
XI8 NET05 NET34 NET65 NET94 VDD VSS WLA[63] WLA[62] WLA[61] WLA[60]
+WLA[59] WLA[58] WLA[57] WLA[56] S55NLLGDPH_X512Y8D12_BW_EDGECELL8B
XI9 NET05 NET65 VDD VSS S55NLLGDPH_X512Y8D12_BW_BLSTRAP_B
.ENDS

************************************************************************
* Library Name:  SMIC_MEMORY
* Cell Name:    S55NLLGDPH_X512Y8D12_BW_EDGECELL4A
* View Name:    schematic
************************************************************************

.SUBCKT S55NLLGDPH_X512Y8D12_BW_EDGECELL4A BB0 BB3 BXB0 BXB3 VDD VSS WLA[3] WLA[2] WLA[1] WLA[0]
XI22 NET80 BB3 NET58 BXB3 VDD VSS WLA[3] S55NLLGDPH_X512Y8D12_BW_EDGECELL
XI17 NET80 NET71 NET58 NET70 VDD VSS WLA[2] S55NLLGDPH_X512Y8D12_BW_EDGECELL
XI16 NET87 NET71 NET86 NET70 VDD VSS WLA[1] S55NLLGDPH_X512Y8D12_BW_EDGECELL
XI15 NET87 BB0 NET86 BXB0 VDD VSS WLA[0] S55NLLGDPH_X512Y8D12_BW_EDGECELL
.ENDS

************************************************************************
* Library Name:  SMIC_MEMORY
* Cell Name:    S55NLLGDPH_X512Y8D12_BW_EDGECELL68A_TOP_LEFT
* View Name:    schematic
************************************************************************

.SUBCKT S55NLLGDPH_X512Y8D12_BW_EDGECELL68A_TOP_LEFT VDD VSS WLA[63] WLA[62] WLA[61] WLA[60] WLA[59] WLA[58] WLA[57] WLA[56]
+WLA[55] WLA[54] WLA[53] WLA[52] WLA[51] WLA[50] WLA[49] WLA[48] WLA[47] WLA[46]
+WLA[45] WLA[44] WLA[43] WLA[42] WLA[41] WLA[40] WLA[39] WLA[38] WLA[37] WLA[36]
+WLA[35] WLA[34] WLA[33] WLA[32] WLA[31] WLA[30] WLA[29] WLA[28] WLA[27] WLA[26]
+WLA[25] WLA[24] WLA[23] WLA[22] WLA[21] WLA[20] WLA[19] WLA[18] WLA[17] WLA[16]
+WLA[15] WLA[14] WLA[13] WLA[12] WLA[11] WLA[10] WLA[9] WLA[8] WLA[7] WLA[6]
+WLA[5] WLA[4] WLA[3] WLA[2] WLA[1] WLA[0]
XI0 NET01 NET61 VDD VSS S55NLLGDPH_X512Y8D12_BW_BLSTRAP
XI1 NET01 NET31 NET61 NET91 VDD VSS WLA[7] WLA[6] WLA[5] WLA[4]
+WLA[3] WLA[2] WLA[1] WLA[0] S55NLLGDPH_X512Y8D12_BW_EDGECELL8A
XI2 NET02 NET31 NET62 NET91 VDD VSS WLA[15] WLA[14] WLA[13] WLA[12]
+WLA[11] WLA[10] WLA[9] WLA[8] S55NLLGDPH_X512Y8D12_BW_EDGECELL8A
XI3 NET02 NET32 NET62 NET92 VDD VSS WLA[23] WLA[22] WLA[21] WLA[20]
+WLA[19] WLA[18] WLA[17] WLA[16] S55NLLGDPH_X512Y8D12_BW_EDGECELL8A
XI4 NET03 NET32 NET63 NET92 VDD VSS WLA[31] WLA[30] WLA[29] WLA[28]
+WLA[27] WLA[26] WLA[25] WLA[24] S55NLLGDPH_X512Y8D12_BW_EDGECELL8A
XI5 NET03 NET33 NET63 NET93 VDD VSS WLA[39] WLA[38] WLA[37] WLA[36]
+WLA[35] WLA[34] WLA[33] WLA[32] S55NLLGDPH_X512Y8D12_BW_EDGECELL8A
XI6 NET04 NET33 NET64 NET93 VDD VSS WLA[47] WLA[46] WLA[45] WLA[44]
+WLA[43] WLA[42] WLA[41] WLA[40] S55NLLGDPH_X512Y8D12_BW_EDGECELL8A
XI7 NET04 NET34 NET64 NET94 VDD VSS WLA[55] WLA[54] WLA[53] WLA[52]
+WLA[51] WLA[50] WLA[49] WLA[48] S55NLLGDPH_X512Y8D12_BW_EDGECELL8A
XI8 NET05 NET34 NET65 NET94 VDD VSS WLA[63] WLA[62] WLA[61] WLA[60]
+WLA[59] WLA[58] WLA[57] WLA[56] S55NLLGDPH_X512Y8D12_BW_EDGECELL8A
XI9 NET05 NET35 NET65 NET95 VDD VSS VSS VSS VSS VSS S55NLLGDPH_X512Y8D12_BW_EDGECELL4A
XI10 NET35 NET95 VDD VSS S55NLLGDPH_X512Y8D12_BW_BLSTRAP
.ENDS

************************************************************************
* Library Name:  SMIC_MEMORY
* Cell Name:    S55NLLGDPH_X512Y8D12_BW_BITCELL_ST
* View Name:    schematic
************************************************************************

.SUBCKT S55NLLGDPH_X512Y8D12_BW_BITCELL_ST BA BB BXA BXB VDD VSS WLA
MTD0 VSS BCN BC VSS DPNPDHVT W=310.00N L=70.00N M=1
MM2 BCN BC VSS VSS DPNPDHVT W=310.00N L=70.00N M=1
MM1 BCN BC VDD VDD DPPLHVT W=85.000N L=70.00N M=1
MTL0 VDD BCN BC VDD DPPLHVT W=85.000N L=70.00N M=1
MTA1 BXA WLA BCN VSS DPNPGBHVT W=100.00N L=85.000N M=1
MN1 BC VSS BB VSS DPNPGBHVT W=100.00N L=85.000N M=1
MM0 BXB VSS BCN VSS DPNPGAHVT W=100.0N L=85.000N M=1
MTA0 BC WLA BA VSS DPNPGAHVT W=100.0N L=85.000N M=1
.ENDS

************************************************************************
* Library Name:  SMIC_MEMORY
* Cell Name:    S55NLLGDPH_X512Y8D12_BW_BITCELL_ST8B
* View Name:    schematic
************************************************************************

.SUBCKT S55NLLGDPH_X512Y8D12_BW_BITCELL_ST8B BA0 BA7 BXA0 BXA7 DUM_BL VDD VSS WLA[7] WLA[6] WLA[5]
+WLA[4] WLA[3] WLA[2] WLA[1] WLA[0]
XI0 NET47 DUM_BL NET46 NET51 VDD VSS WLA[6] S55NLLGDPH_X512Y8D12_BW_BITCELL_ST
XI1 BA7 DUM_BL BXA7 NET51 VDD VSS WLA[7] S55NLLGDPH_X512Y8D12_BW_BITCELL_ST
XI2 NET47 DUM_BL NET46 NET58 VDD VSS WLA[5] S55NLLGDPH_X512Y8D12_BW_BITCELL_ST
XI3 NET68 DUM_BL NET67 NET58 VDD VSS WLA[4] S55NLLGDPH_X512Y8D12_BW_BITCELL_ST
XI4 NET68 DUM_BL NET67 NET72 VDD VSS WLA[3] S55NLLGDPH_X512Y8D12_BW_BITCELL_ST
XI5 NET82 DUM_BL NET81 NET72 VDD VSS WLA[2] S55NLLGDPH_X512Y8D12_BW_BITCELL_ST
XI6 NET82 DUM_BL NET81 NET86 VDD VSS WLA[1] S55NLLGDPH_X512Y8D12_BW_BITCELL_ST
XI7 BA0 DUM_BL BXA0 NET86 VDD VSS WLA[0] S55NLLGDPH_X512Y8D12_BW_BITCELL_ST
.ENDS

************************************************************************
* Library Name:  SMIC_MEMORY
* Cell Name:    S55NLLGDPH_X512Y8D12_BW_BITCELL_ST66B
* View Name:    schematic
************************************************************************

.SUBCKT S55NLLGDPH_X512Y8D12_BW_BITCELL_ST66B DUM_BL RWL[0] RWL[1] VDD VSS WLA[63] WLA[62] WLA[61] WLA[60] WLA[59]
+WLA[58] WLA[57] WLA[56] WLA[55] WLA[54] WLA[53] WLA[52] WLA[51] WLA[50] WLA[49]
+WLA[48] WLA[47] WLA[46] WLA[45] WLA[44] WLA[43] WLA[42] WLA[41] WLA[40] WLA[39]
+WLA[38] WLA[37] WLA[36] WLA[35] WLA[34] WLA[33] WLA[32] WLA[31] WLA[30] WLA[29]
+WLA[28] WLA[27] WLA[26] WLA[25] WLA[24] WLA[23] WLA[22] WLA[21] WLA[20] WLA[19]
+WLA[18] WLA[17] WLA[16] WLA[15] WLA[14] WLA[13] WLA[12] WLA[11] WLA[10] WLA[9]
+WLA[8] WLA[7] WLA[6] WLA[5] WLA[4] WLA[3] WLA[2] WLA[1] WLA[0]
XI0 NET01 NET61 VDD VSS S55NLLGDPH_X512Y8D12_BW_BLSTRAP_B
XI1 NET01 DUM_BL NET61 NET91 VDD VSS RWL[0] S55NLLGDPH_X512Y8D12_BW_BITCELL_ST
XI2 NET02 DUM_BL NET62 NET91 VDD VSS RWL[1] S55NLLGDPH_X512Y8D12_BW_BITCELL_ST
XI3 NET02 NET31 NET62 NET92 DUM_BL VDD VSS WLA[7] WLA[6] WLA[5]
+WLA[4] WLA[3] WLA[2] WLA[1] WLA[0] S55NLLGDPH_X512Y8D12_BW_BITCELL_ST8B
XI4 NET03 NET31 NET63 NET92 DUM_BL VDD VSS WLA[15] WLA[14] WLA[13]
+WLA[12] WLA[11] WLA[10] WLA[9] WLA[8] S55NLLGDPH_X512Y8D12_BW_BITCELL_ST8B
XI5 NET03 NET32 NET63 NET93 DUM_BL VDD VSS WLA[23] WLA[22] WLA[21]
+WLA[20] WLA[19] WLA[18] WLA[17] WLA[16] S55NLLGDPH_X512Y8D12_BW_BITCELL_ST8B
XI6 NET04 NET32 NET64 NET93 DUM_BL VDD VSS WLA[31] WLA[30] WLA[29]
+WLA[28] WLA[27] WLA[26] WLA[25] WLA[24] S55NLLGDPH_X512Y8D12_BW_BITCELL_ST8B
XI7 NET04 NET33 NET64 NET94 DUM_BL VDD VSS WLA[39] WLA[38] WLA[37]
+WLA[36] WLA[35] WLA[34] WLA[33] WLA[32] S55NLLGDPH_X512Y8D12_BW_BITCELL_ST8B
XI8 NET05 NET33 NET65 NET94 DUM_BL VDD VSS WLA[47] WLA[46] WLA[45]
+WLA[44] WLA[43] WLA[42] WLA[41] WLA[40] S55NLLGDPH_X512Y8D12_BW_BITCELL_ST8B
XI9 NET05 NET34 NET65 NET95 DUM_BL VDD VSS WLA[55] WLA[54] WLA[53]
+WLA[52] WLA[51] WLA[50] WLA[49] WLA[48] S55NLLGDPH_X512Y8D12_BW_BITCELL_ST8B
XI10 NET06 NET34 NET66 NET95 DUM_BL VDD VSS WLA[63] WLA[62] WLA[61]
+WLA[60] WLA[59] WLA[58] WLA[57] WLA[56] S55NLLGDPH_X512Y8D12_BW_BITCELL_ST8B
XI11 NET06 NET66 VDD VSS S55NLLGDPH_X512Y8D12_BW_BLSTRAP_B
.ENDS

************************************************************************
* Library Name:  SMIC_MEMORY
* Cell Name:    S55NLLGDPH_X512Y8D12_BW_BITCELL_ST8A
* View Name:    schematic
************************************************************************

.SUBCKT S55NLLGDPH_X512Y8D12_BW_BITCELL_ST8A BXB0 BXB7 DUMBL VDD VSS WLA[7] WLA[6] WLA[5] WLA[4] WLA[3]
+WLA[2] WLA[1] WLA[0]
XI0 NET52 DUMBL NET51 BXB7 VDD VSS WLA[7] S55NLLGDPH_X512Y8D12_BW_BITCELL_ST
XI1 NET52 DUMBL NET51 NET42 VDD VSS WLA[6] S55NLLGDPH_X512Y8D12_BW_BITCELL_ST
XI2 NET59 DUMBL NET58 NET42 VDD VSS WLA[5] S55NLLGDPH_X512Y8D12_BW_BITCELL_ST
XI3 NET59 DUMBL NET58 NET63 VDD VSS WLA[4] S55NLLGDPH_X512Y8D12_BW_BITCELL_ST
XI4 NET73 DUMBL NET72 NET63 VDD VSS WLA[3] S55NLLGDPH_X512Y8D12_BW_BITCELL_ST
XI5 NET73 DUMBL NET72 NET77 VDD VSS WLA[2] S55NLLGDPH_X512Y8D12_BW_BITCELL_ST
XI6 NET87 DUMBL NET86 NET77 VDD VSS WLA[1] S55NLLGDPH_X512Y8D12_BW_BITCELL_ST
XI7 NET87 DUMBL NET86 BXB0 VDD VSS WLA[0] S55NLLGDPH_X512Y8D12_BW_BITCELL_ST
.ENDS

************************************************************************
* Library Name:  SMIC_MEMORY
* Cell Name:    S55NLLGDPH_X512Y8D12_BW_BITCELL_ST64A
* View Name:    schematic
************************************************************************

.SUBCKT S55NLLGDPH_X512Y8D12_BW_BITCELL_ST64A DUM_BL VDD VSS WLA[63] WLA[62] WLA[61] WLA[60] WLA[59] WLA[58] WLA[57]
+WLA[56] WLA[55] WLA[54] WLA[53] WLA[52] WLA[51] WLA[50] WLA[49] WLA[48] WLA[47]
+WLA[46] WLA[45] WLA[44] WLA[43] WLA[42] WLA[41] WLA[40] WLA[39] WLA[38] WLA[37]
+WLA[36] WLA[35] WLA[34] WLA[33] WLA[32] WLA[31] WLA[30] WLA[29] WLA[28] WLA[27]
+WLA[26] WLA[25] WLA[24] WLA[23] WLA[22] WLA[21] WLA[20] WLA[19] WLA[18] WLA[17]
+WLA[16] WLA[15] WLA[14] WLA[13] WLA[12] WLA[11] WLA[10] WLA[9] WLA[8] WLA[7]
+WLA[6] WLA[5] WLA[4] WLA[3] WLA[2] WLA[1] WLA[0]
XI0 DUM_BL NET025 VDD VSS S55NLLGDPH_X512Y8D12_BW_BLSTRAP
XI1 DUM_BL NET50 VDD VSS S55NLLGDPH_X512Y8D12_BW_BLSTRAP
XI2 NET32 NET37 DUM_BL VDD VSS WLA[23] WLA[22] WLA[21] WLA[20] WLA[19]
+WLA[18] WLA[17] WLA[16] S55NLLGDPH_X512Y8D12_BW_BITCELL_ST8A
XI3 NET25 NET37 DUM_BL VDD VSS WLA[31] WLA[30] WLA[29] WLA[28] WLA[27]
+WLA[26] WLA[25] WLA[24] S55NLLGDPH_X512Y8D12_BW_BITCELL_ST8A
XI4 NET051 NET044 DUM_BL VDD VSS WLA[55] WLA[54] WLA[53] WLA[52] WLA[51]
+WLA[50] WLA[49] WLA[48] S55NLLGDPH_X512Y8D12_BW_BITCELL_ST8A
XI5 NET025 NET044 DUM_BL VDD VSS WLA[63] WLA[62] WLA[61] WLA[60] WLA[59]
+WLA[58] WLA[57] WLA[56] S55NLLGDPH_X512Y8D12_BW_BITCELL_ST8A
XI6 NET051 NET038 DUM_BL VDD VSS WLA[47] WLA[46] WLA[45] WLA[44] WLA[43]
+WLA[42] WLA[41] WLA[40] S55NLLGDPH_X512Y8D12_BW_BITCELL_ST8A
XI7 NET25 NET038 DUM_BL VDD VSS WLA[39] WLA[38] WLA[37] WLA[36] WLA[35]
+WLA[34] WLA[33] WLA[32] S55NLLGDPH_X512Y8D12_BW_BITCELL_ST8A
XI8 NET32 NET43 DUM_BL VDD VSS WLA[15] WLA[14] WLA[13] WLA[12] WLA[11]
+WLA[10] WLA[9] WLA[8] S55NLLGDPH_X512Y8D12_BW_BITCELL_ST8A
XI9 NET50 NET43 DUM_BL VDD VSS WLA[7] WLA[6] WLA[5] WLA[4] WLA[3]
+WLA[2] WLA[1] WLA[0] S55NLLGDPH_X512Y8D12_BW_BITCELL_ST8A
.ENDS

************************************************************************
* Library Name:  SMIC_MEMORY
* Cell Name:    S55NLLGDPH_X512Y8D12_BW_BITCELL_ST64B
* View Name:    schematic
************************************************************************

.SUBCKT S55NLLGDPH_X512Y8D12_BW_BITCELL_ST64B DUM_BL VDD VSS WLA[63] WLA[62] WLA[61] WLA[60] WLA[59] WLA[58] WLA[57]
+WLA[56] WLA[55] WLA[54] WLA[53] WLA[52] WLA[51] WLA[50] WLA[49] WLA[48] WLA[47]
+WLA[46] WLA[45] WLA[44] WLA[43] WLA[42] WLA[41] WLA[40] WLA[39] WLA[38] WLA[37]
+WLA[36] WLA[35] WLA[34] WLA[33] WLA[32] WLA[31] WLA[30] WLA[29] WLA[28] WLA[27]
+WLA[26] WLA[25] WLA[24] WLA[23] WLA[22] WLA[21] WLA[20] WLA[19] WLA[18] WLA[17]
+WLA[16] WLA[15] WLA[14] WLA[13] WLA[12] WLA[11] WLA[10] WLA[9] WLA[8] WLA[7]
+WLA[6] WLA[5] WLA[4] WLA[3] WLA[2] WLA[1] WLA[0]
XI0 NET69 NET66 VDD VSS S55NLLGDPH_X512Y8D12_BW_BLSTRAP_B
XI1 NET36 NET35 VDD VSS S55NLLGDPH_X512Y8D12_BW_BLSTRAP_B
XI2 NET059 NET049 NET056 NET052 DUM_BL VDD VSS WLA[55] WLA[54] WLA[53]
+WLA[52] WLA[51] WLA[50] WLA[49] WLA[48] S55NLLGDPH_X512Y8D12_BW_BITCELL_ST8B
XI3 NET69 NET049 NET66 NET052 DUM_BL VDD VSS WLA[63] WLA[62] WLA[61]
+WLA[60] WLA[59] WLA[58] WLA[57] WLA[56] S55NLLGDPH_X512Y8D12_BW_BITCELL_ST8B
XI4 NET36 NET41 NET35 NET44 DUM_BL VDD VSS WLA[7] WLA[6] WLA[5]
+WLA[4] WLA[3] WLA[2] WLA[1] WLA[0] S55NLLGDPH_X512Y8D12_BW_BITCELL_ST8B
XI5 NET51 NET41 NET48 NET44 DUM_BL VDD VSS WLA[15] WLA[14] WLA[13]
+WLA[12] WLA[11] WLA[10] WLA[9] WLA[8] S55NLLGDPH_X512Y8D12_BW_BITCELL_ST8B
XI6 NET51 NET57 NET48 NET60 DUM_BL VDD VSS WLA[23] WLA[22] WLA[21]
+WLA[20] WLA[19] WLA[18] WLA[17] WLA[16] S55NLLGDPH_X512Y8D12_BW_BITCELL_ST8B
XI7 NET0101 NET57 NET098 NET60 DUM_BL VDD VSS WLA[31] WLA[30] WLA[29]
+WLA[28] WLA[27] WLA[26] WLA[25] WLA[24] S55NLLGDPH_X512Y8D12_BW_BITCELL_ST8B
XI8 NET059 NET065 NET056 NET068 DUM_BL VDD VSS WLA[47] WLA[46] WLA[45]
+WLA[44] WLA[43] WLA[42] WLA[41] WLA[40] S55NLLGDPH_X512Y8D12_BW_BITCELL_ST8B
XI9 NET0101 NET065 NET098 NET068 DUM_BL VDD VSS WLA[39] WLA[38] WLA[37]
+WLA[36] WLA[35] WLA[34] WLA[33] WLA[32] S55NLLGDPH_X512Y8D12_BW_BITCELL_ST8B
.ENDS

************************************************************************
* Library Name:  SMIC_MEMORY
* Cell Name:    S55NLLGDPH_X512Y8D12_BW_BITCELL_ST8B_TW
* View Name:    schematic
************************************************************************

.SUBCKT S55NLLGDPH_X512Y8D12_BW_BITCELL_ST8B_TW BA0 BA7 BXA0 BXA7 DUM_BL VDD VSS WLA[7] WLA[6] WLA[5]
+WLA[4] WLA[3] WLA[2] WLA[1] WLA[0]
XI0 BA7 NET45 BXA7 DUM_BL VDD VSS WLA[7] S55NLLGDPH_X512Y8D12_BW_BITCELL_ST
XI1 NET54 NET45 NET53 DUM_BL VDD VSS WLA[6] S55NLLGDPH_X512Y8D12_BW_BITCELL_ST
XI2 NET54 NET59 NET53 DUM_BL VDD VSS WLA[5] S55NLLGDPH_X512Y8D12_BW_BITCELL_ST
XI3 NET68 NET59 NET67 DUM_BL VDD VSS WLA[4] S55NLLGDPH_X512Y8D12_BW_BITCELL_ST
XI4 NET68 NET73 NET67 DUM_BL VDD VSS WLA[3] S55NLLGDPH_X512Y8D12_BW_BITCELL_ST
XI5 NET82 NET73 NET81 DUM_BL VDD VSS WLA[2] S55NLLGDPH_X512Y8D12_BW_BITCELL_ST
XI6 NET82 NET87 NET81 DUM_BL VDD VSS WLA[1] S55NLLGDPH_X512Y8D12_BW_BITCELL_ST
XI7 BA0 NET87 BXA0 DUM_BL VDD VSS WLA[0] S55NLLGDPH_X512Y8D12_BW_BITCELL_ST
.ENDS

************************************************************************
* Library Name:  SMIC_MEMORY
* Cell Name:    S55NLLGDPH_X512Y8D12_BW_BITCELL_ST64B_TW_LEFT
* View Name:    schematic
************************************************************************

.SUBCKT S55NLLGDPH_X512Y8D12_BW_BITCELL_ST64B_TW_LEFT DUM_BL VDD VSS WLA[63] WLA[62] WLA[61] WLA[60] WLA[59] WLA[58] WLA[57]
+WLA[56] WLA[55] WLA[54] WLA[53] WLA[52] WLA[51] WLA[50] WLA[49] WLA[48] WLA[47]
+WLA[46] WLA[45] WLA[44] WLA[43] WLA[42] WLA[41] WLA[40] WLA[39] WLA[38] WLA[37]
+WLA[36] WLA[35] WLA[34] WLA[33] WLA[32] WLA[31] WLA[30] WLA[29] WLA[28] WLA[27]
+WLA[26] WLA[25] WLA[24] WLA[23] WLA[22] WLA[21] WLA[20] WLA[19] WLA[18] WLA[17]
+WLA[16] WLA[15] WLA[14] WLA[13] WLA[12] WLA[11] WLA[10] WLA[9] WLA[8] WLA[7]
+WLA[6] WLA[5] WLA[4] WLA[3] WLA[2] WLA[1] WLA[0]
XI0 NET01 NET61 VDD VSS S55NLLGDPH_X512Y8D12_BW_BLSTRAP_B
XI1 NET01 NET31 NET61 NET91 DUM_BL VDD VSS WLA[7] WLA[6] WLA[5]
+WLA[4] WLA[3] WLA[2] WLA[1] WLA[0] S55NLLGDPH_X512Y8D12_BW_BITCELL_ST8B_TW
XI2 NET02 NET31 NET62 NET91 DUM_BL VDD VSS WLA[15] WLA[14] WLA[13]
+WLA[12] WLA[11] WLA[10] WLA[9] WLA[8] S55NLLGDPH_X512Y8D12_BW_BITCELL_ST8B_TW
XI3 NET02 NET32 NET62 NET92 DUM_BL VDD VSS WLA[23] WLA[22] WLA[21]
+WLA[20] WLA[19] WLA[18] WLA[17] WLA[16] S55NLLGDPH_X512Y8D12_BW_BITCELL_ST8B_TW
XI4 NET03 NET32 NET63 NET92 DUM_BL VDD VSS WLA[31] WLA[30] WLA[29]
+WLA[28] WLA[27] WLA[26] WLA[25] WLA[24] S55NLLGDPH_X512Y8D12_BW_BITCELL_ST8B_TW
XI5 NET03 NET33 NET63 NET93 DUM_BL VDD VSS WLA[39] WLA[38] WLA[37]
+WLA[36] WLA[35] WLA[34] WLA[33] WLA[32] S55NLLGDPH_X512Y8D12_BW_BITCELL_ST8B_TW
XI6 NET04 NET33 NET64 NET93 DUM_BL VDD VSS WLA[47] WLA[46] WLA[45]
+WLA[44] WLA[43] WLA[42] WLA[41] WLA[40] S55NLLGDPH_X512Y8D12_BW_BITCELL_ST8B_TW
XI7 NET04 NET34 NET64 NET94 DUM_BL VDD VSS WLA[55] WLA[54] WLA[53]
+WLA[52] WLA[51] WLA[50] WLA[49] WLA[48] S55NLLGDPH_X512Y8D12_BW_BITCELL_ST8B_TW
XI8 NET05 NET34 NET65 NET94 DUM_BL VDD VSS WLA[63] WLA[62] WLA[61]
+WLA[60] WLA[59] WLA[58] WLA[57] WLA[56] S55NLLGDPH_X512Y8D12_BW_BITCELL_ST8B_TW
XI9 NET05 NET65 VDD VSS S55NLLGDPH_X512Y8D12_BW_BLSTRAP_B
.ENDS

************************************************************************
* Library Name:  SMIC_MEMORY
* Cell Name:    S55NLLGDPH_X512Y8D12_BW_BITCELL_ST8A_TW
* View Name:    schematic
************************************************************************

.SUBCKT S55NLLGDPH_X512Y8D12_BW_BITCELL_ST8A_TW BB0 BB7 DUMBL VDD VSS WLA[7] WLA[6] WLA[5] WLA[4] WLA[3]
+WLA[2] WLA[1] WLA[0]
XI0 NET52 NET43 NET51 DUMBL VDD VSS WLA[6] S55NLLGDPH_X512Y8D12_BW_BITCELL_ST
XI1 NET52 BB7 NET51 DUMBL VDD VSS WLA[7] S55NLLGDPH_X512Y8D12_BW_BITCELL_ST
XI2 NET59 NET43 NET58 DUMBL VDD VSS WLA[5] S55NLLGDPH_X512Y8D12_BW_BITCELL_ST
XI3 NET59 NET64 NET58 DUMBL VDD VSS WLA[4] S55NLLGDPH_X512Y8D12_BW_BITCELL_ST
XI4 NET73 NET64 NET72 DUMBL VDD VSS WLA[3] S55NLLGDPH_X512Y8D12_BW_BITCELL_ST
XI5 NET73 NET78 NET72 DUMBL VDD VSS WLA[2] S55NLLGDPH_X512Y8D12_BW_BITCELL_ST
XI6 NET87 NET78 NET86 DUMBL VDD VSS WLA[1] S55NLLGDPH_X512Y8D12_BW_BITCELL_ST
XI7 NET87 BB0 NET86 DUMBL VDD VSS WLA[0] S55NLLGDPH_X512Y8D12_BW_BITCELL_ST
.ENDS

************************************************************************
* Library Name:  SMIC_MEMORY
* Cell Name:    S55NLLGDPH_X512Y8D12_BW_BITCELL_ST64A_TW_LEFT
* View Name:    schematic
************************************************************************

.SUBCKT S55NLLGDPH_X512Y8D12_BW_BITCELL_ST64A_TW_LEFT DUM_BL VDD VSS WLA[63] WLA[62] WLA[61] WLA[60] WLA[59] WLA[58] WLA[57]
+WLA[56] WLA[55] WLA[54] WLA[53] WLA[52] WLA[51] WLA[50] WLA[49] WLA[48] WLA[47]
+WLA[46] WLA[45] WLA[44] WLA[43] WLA[42] WLA[41] WLA[40] WLA[39] WLA[38] WLA[37]
+WLA[36] WLA[35] WLA[34] WLA[33] WLA[32] WLA[31] WLA[30] WLA[29] WLA[28] WLA[27]
+WLA[26] WLA[25] WLA[24] WLA[23] WLA[22] WLA[21] WLA[20] WLA[19] WLA[18] WLA[17]
+WLA[16] WLA[15] WLA[14] WLA[13] WLA[12] WLA[11] WLA[10] WLA[9] WLA[8] WLA[7]
+WLA[6] WLA[5] WLA[4] WLA[3] WLA[2] WLA[1] WLA[0]
XI0 NET01 DUM_BL VDD VSS S55NLLGDPH_X512Y8D12_BW_BLSTRAP
XI1 NET01 NET31 DUM_BL VDD VSS WLA[7] WLA[6] WLA[5] WLA[4] WLA[3]
+WLA[2] WLA[1] WLA[0] S55NLLGDPH_X512Y8D12_BW_BITCELL_ST8A_TW
XI2 NET02 NET31 DUM_BL VDD VSS WLA[15] WLA[14] WLA[13] WLA[12] WLA[11]
+WLA[10] WLA[9] WLA[8] S55NLLGDPH_X512Y8D12_BW_BITCELL_ST8A_TW
XI3 NET02 NET32 DUM_BL VDD VSS WLA[23] WLA[22] WLA[21] WLA[20] WLA[19]
+WLA[18] WLA[17] WLA[16] S55NLLGDPH_X512Y8D12_BW_BITCELL_ST8A_TW
XI4 NET03 NET32 DUM_BL VDD VSS WLA[31] WLA[30] WLA[29] WLA[28] WLA[27]
+WLA[26] WLA[25] WLA[24] S55NLLGDPH_X512Y8D12_BW_BITCELL_ST8A_TW
XI5 NET03 NET33 DUM_BL VDD VSS WLA[39] WLA[38] WLA[37] WLA[36] WLA[35]
+WLA[34] WLA[33] WLA[32] S55NLLGDPH_X512Y8D12_BW_BITCELL_ST8A_TW
XI6 NET04 NET33 DUM_BL VDD VSS WLA[47] WLA[46] WLA[45] WLA[44] WLA[43]
+WLA[42] WLA[41] WLA[40] S55NLLGDPH_X512Y8D12_BW_BITCELL_ST8A_TW
XI7 NET04 NET34 DUM_BL VDD VSS WLA[55] WLA[54] WLA[53] WLA[52] WLA[51]
+WLA[50] WLA[49] WLA[48] S55NLLGDPH_X512Y8D12_BW_BITCELL_ST8A_TW
XI8 NET05 NET34 DUM_BL VDD VSS WLA[63] WLA[62] WLA[61] WLA[60] WLA[59]
+WLA[58] WLA[57] WLA[56] S55NLLGDPH_X512Y8D12_BW_BITCELL_ST8A_TW
XI9 NET05 DUM_BL VDD VSS S55NLLGDPH_X512Y8D12_BW_BLSTRAP
.ENDS

************************************************************************
* Library Name:  SMIC_MEMORY
* Cell Name:    S55NLLGDPH_X512Y8D12_BW_BITCELL_ST4A_TW