************************************************************************
* Cdl Netlist:
*
* Top Cell Name: dpram16x4096
* Configuration: 4096X16CM8
* View Name:     schematic
* Netlist on:    2024-3-29 10:27:320
************************************************************************


************************************************************************
* Library Name: XMC55_DPS
* Created by buildSchLib.pl  at Fri Oct 25 16:34:57 CST 2019
************************************************************************
************************************************************************




************************************************************************
* Library Name: XMC55_DPS
* Cell Name:    xmc55_dps_collar_edge
************************************************************************
.SUBCKT xmc55_dps_collar_edge tie_low vdd vss
** N=75 EP=3 IP=0 FDC=4
M0 tie_low 1 vss vss hvtnfet l=6e-08 w=9e-07 $X=1025 $Y=1120 $D=616
M1 vss 1 tie_low vss hvtnfet l=6e-08 w=9e-07 $X=1285 $Y=1120 $D=616
M2 1 1 vdd vdd hvtpfet l=6e-08 w=9e-07 $X=1025 $Y=2340 $D=636
M3 vdd 1 1 vdd hvtpfet l=6e-08 w=9e-07 $X=1285 $Y=2340 $D=636
.ends

************************************************************************
* Library Name: XMC55_DPS
* Cell Name:    xmc55_dps_collar_corner
************************************************************************
.SUBCKT xmc55_dps_collar_corner aa<12> aa<11> aa<10> aa<9> aa<8> aa<7> aa<6> 
+ aa<5> aa<4> aa<3> aa<2> aa<1> aa<0> aa_int<12> aa_int<11> aa_int<10> 
+ aa_int<9> aa_int<8> aa_int<7> aa_int<6> aa_int<5> aa_int<4> aa_int<3> 
+ aa_int<2> aa_int<1> aa_int<0> ab<12> ab<11> ab<10> ab<9> ab<8> ab<7> ab<6> 
+ ab<5> ab<4> ab<3> ab<2> ab<1> ab<0> ab_int<12> ab_int<11> ab_int<10> 
+ ab_int<9> ab_int<8> ab_int<7> ab_int<6> ab_int<5> ab_int<4> ab_int<3> 
+ ab_int<2> ab_int<1> ab_int<0> cena cena_int cenb cenb_int clka clka_int clkb 
+ clkb_int tie_vdd tie_vss tm<9> tm<8> tm<7> tm<6> tm<5> tm<4> tm<3> tm<2> 
+ tm<1> tm<0> tm_int<9> tm_int<8> tm_int<7> tm_int<6> tm_int<5> tm_int<4> 
+ tm_int<3> tm_int<2> tm_int<1> tm_int<0> vdd vss wena wena_int wenb wenb_int
** N=1833 EP=88 IP=0 FDC=299
D0 vss ab<0> diodenx AREA=7.04e-14 $X=290 $Y=130 $D=2
D1 vss ab<2> diodenx AREA=7.04e-14 $X=2500 $Y=130 $D=2
D2 vss ab<1> diodenx AREA=7.04e-14 $X=2850 $Y=130 $D=2
D3 vss ab<3> diodenx AREA=7.04e-14 $X=3990 $Y=130 $D=2
D4 vss ab<4> diodenx AREA=7.04e-14 $X=4900 $Y=130 $D=2
D5 vss ab<5> diodenx AREA=7.04e-14 $X=6065 $Y=130 $D=2
D6 vss ab<6> diodenx AREA=7.04e-14 $X=6415 $Y=130 $D=2
D7 vss ab<7> diodenx AREA=7.04e-14 $X=7580 $Y=130 $D=2
D8 vss ab<8> diodenx AREA=7.04e-14 $X=8530 $Y=130 $D=2
D9 vss ab<9> diodenx AREA=7.04e-14 $X=9980 $Y=130 $D=2
D10 vss ab<10> diodenx AREA=7.04e-14 $X=10900 $Y=130 $D=2
D11 vss ab<11> diodenx AREA=7.04e-14 $X=11339 $Y=130 $D=2
D12 vss ab<12> diodenx AREA=7.04e-14 $X=11780 $Y=130 $D=2
D13 vss wenb diodenx AREA=7.04e-14 $X=14180 $Y=130 $D=2
D14 vss cenb diodenx AREA=7.04e-14 $X=15100 $Y=130 $D=2
D15 vss clkb diodenx AREA=7.04e-14 $X=16700 $Y=130 $D=2
D16 vss tm<0> diodenx AREA=7.04e-14 $X=17180 $Y=130 $D=2
D17 vss tm<2> diodenx AREA=7.04e-14 $X=18065 $Y=130 $D=2
D18 vss tm<6> diodenx AREA=7.04e-14 $X=18415 $Y=130 $D=2
D19 vss tm<3> diodenx AREA=7.04e-14 $X=19265 $Y=130 $D=2
D20 vss tm<4> diodenx AREA=7.04e-14 $X=19615 $Y=130 $D=2
D21 vss tm<9> diodenx AREA=7.04e-14 $X=23725 $Y=130 $D=2
D22 vss tm<8> diodenx AREA=7.04e-14 $X=24075 $Y=130 $D=2
D23 vss tm<7> diodenx AREA=7.04e-14 $X=24925 $Y=130 $D=2
D24 vss tm<5> diodenx AREA=7.04e-14 $X=25275 $Y=130 $D=2
D25 vss tm<1> diodenx AREA=7.04e-14 $X=26160 $Y=130 $D=2
D26 vss clka diodenx AREA=7.04e-14 $X=26640 $Y=130 $D=2
D27 vss cena diodenx AREA=7.04e-14 $X=28240 $Y=130 $D=2
D28 vss wena diodenx AREA=7.04e-14 $X=29160 $Y=130 $D=2
D29 vss aa<12> diodenx AREA=7.04e-14 $X=31560 $Y=130 $D=2
D30 vss aa<11> diodenx AREA=7.04e-14 $X=32001 $Y=130 $D=2
D31 vss aa<10> diodenx AREA=7.04e-14 $X=32440 $Y=130 $D=2
D32 vss aa<9> diodenx AREA=7.04e-14 $X=33360 $Y=130 $D=2
D33 vss aa<8> diodenx AREA=7.04e-14 $X=34810 $Y=130 $D=2
D34 vss aa<7> diodenx AREA=7.04e-14 $X=35760 $Y=130 $D=2
D35 vss aa<6> diodenx AREA=7.04e-14 $X=36925 $Y=130 $D=2
D36 vss aa<5> diodenx AREA=7.04e-14 $X=37275 $Y=130 $D=2
D37 vss aa<4> diodenx AREA=7.04e-14 $X=38440 $Y=130 $D=2
D38 vss aa<3> diodenx AREA=7.04e-14 $X=39350 $Y=130 $D=2
D39 vss aa<1> diodenx AREA=7.04e-14 $X=40490 $Y=130 $D=2
D40 vss aa<2> diodenx AREA=7.04e-14 $X=40840 $Y=130 $D=2
D41 vss aa<0> diodenx AREA=7.04e-14 $X=43050 $Y=130 $D=2
M42 vss ab<0> 2 vss hvtnfet l=6e-08 w=5e-07 $X=290 $Y=1620 $D=616
M43 ab_int<0> 2 vss vss hvtnfet l=6e-08 w=1e-06 $X=560 $Y=1120 $D=616
M44 vss 2 ab_int<0> vss hvtnfet l=6e-08 w=1e-06 $X=820 $Y=1120 $D=616
M45 ab_int<1> 3 vss vss hvtnfet l=6e-08 w=1e-06 $X=1080 $Y=1120 $D=616
M46 vss 3 ab_int<1> vss hvtnfet l=6e-08 w=1e-06 $X=1340 $Y=1120 $D=616
M47 vss ab<1> 3 vss hvtnfet l=6e-08 w=5e-07 $X=1850 $Y=1620 $D=616
M48 6 ab<2> vss vss hvtnfet l=6e-08 w=5e-07 $X=2110 $Y=1620 $D=616
M49 ab_int<2> 6 vss vss hvtnfet l=6e-08 w=1e-06 $X=2620 $Y=1120 $D=616
M50 vss 6 ab_int<2> vss hvtnfet l=6e-08 w=1e-06 $X=2880 $Y=1120 $D=616
M51 ab_int<3> 7 vss vss hvtnfet l=6e-08 w=1e-06 $X=3140 $Y=1120 $D=616
M52 vss 7 ab_int<3> vss hvtnfet l=6e-08 w=1e-06 $X=3400 $Y=1120 $D=616
M53 vss ab<3> 7 vss hvtnfet l=6e-08 w=5e-07 $X=3910 $Y=1620 $D=616
M54 10 ab<4> vss vss hvtnfet l=6e-08 w=5e-07 $X=4170 $Y=1620 $D=616
M55 ab_int<4> 10 vss vss hvtnfet l=6e-08 w=1e-06 $X=4680 $Y=1120 $D=616
M56 vss 10 ab_int<4> vss hvtnfet l=6e-08 w=1e-06 $X=4940 $Y=1120 $D=616
M57 ab_int<5> 11 vss vss hvtnfet l=6e-08 w=1e-06 $X=5200 $Y=1120 $D=616
M58 vss 11 ab_int<5> vss hvtnfet l=6e-08 w=1e-06 $X=5460 $Y=1120 $D=616
M59 vss ab<5> 11 vss hvtnfet l=6e-08 w=5e-07 $X=5970 $Y=1620 $D=616
M60 14 ab<6> vss vss hvtnfet l=6e-08 w=5e-07 $X=6230 $Y=1620 $D=616
M61 ab_int<6> 14 vss vss hvtnfet l=6e-08 w=1e-06 $X=6740 $Y=1120 $D=616
M62 vss 14 ab_int<6> vss hvtnfet l=6e-08 w=1e-06 $X=7000 $Y=1120 $D=616
M63 ab_int<7> 15 vss vss hvtnfet l=6e-08 w=1e-06 $X=7260 $Y=1120 $D=616
M64 vss 15 ab_int<7> vss hvtnfet l=6e-08 w=1e-06 $X=7520 $Y=1120 $D=616
M65 vss ab<7> 15 vss hvtnfet l=6e-08 w=5e-07 $X=8030 $Y=1620 $D=616
M66 18 ab<8> vss vss hvtnfet l=6e-08 w=5e-07 $X=8290 $Y=1620 $D=616
M67 ab_int<8> 18 vss vss hvtnfet l=6e-08 w=1e-06 $X=8800 $Y=1120 $D=616
M68 vss 18 ab_int<8> vss hvtnfet l=6e-08 w=1e-06 $X=9060 $Y=1120 $D=616
M69 ab_int<9> 19 vss vss hvtnfet l=6e-08 w=1e-06 $X=9320 $Y=1120 $D=616
M70 vss 19 ab_int<9> vss hvtnfet l=6e-08 w=1e-06 $X=9580 $Y=1120 $D=616
M71 vss ab<9> 19 vss hvtnfet l=6e-08 w=5e-07 $X=10090 $Y=1620 $D=616
M72 22 ab<10> vss vss hvtnfet l=6e-08 w=5e-07 $X=10350 $Y=1620 $D=616
M73 ab_int<10> 22 vss vss hvtnfet l=6e-08 w=1e-06 $X=10860 $Y=1120 $D=616
M74 vss 22 ab_int<10> vss hvtnfet l=6e-08 w=1e-06 $X=11120 $Y=1120 $D=616
M75 ab_int<11> 23 vss vss hvtnfet l=6e-08 w=1e-06 $X=11380 $Y=1120 $D=616
M76 vss 23 ab_int<11> vss hvtnfet l=6e-08 w=1e-06 $X=11640 $Y=1120 $D=616
M77 vss ab<11> 23 vss hvtnfet l=6e-08 w=5e-07 $X=12150 $Y=1620 $D=616
M78 26 ab<12> vss vss hvtnfet l=6e-08 w=5e-07 $X=12410 $Y=1620 $D=616
M79 ab_int<12> 26 vss vss hvtnfet l=6e-08 w=1e-06 $X=12920 $Y=1120 $D=616
M80 vss 26 ab_int<12> vss hvtnfet l=6e-08 w=1e-06 $X=13180 $Y=1120 $D=616
M81 wenb_int 27 vss vss hvtnfet l=6e-08 w=1e-06 $X=13440 $Y=1120 $D=616
M82 vss 27 wenb_int vss hvtnfet l=6e-08 w=1e-06 $X=13700 $Y=1120 $D=616
M83 27 wenb vss vss hvtnfet l=6e-08 w=5e-07 $X=13970 $Y=1620 $D=616
M84 105 cenb vss vss hvtnfet l=6e-08 w=3.2e-07 $X=14670 $Y=2067 $D=616
M85 33 31 105 vss hvtnfet l=6e-08 w=3.2e-07 $X=14930 $Y=2067 $D=616
M86 106 32 33 vss hvtnfet l=6e-08 w=2.1e-07 $X=15190 $Y=2177 $D=616
M87 vss clkb 31 vss hvtnfet l=6e-08 w=3.2e-07 $X=15276 $Y=1147 $D=616
M88 vss clkb 106 vss hvtnfet l=6e-08 w=2.1e-07 $X=15450 $Y=2177 $D=616
M89 32 33 vss vss hvtnfet l=6e-08 w=2.1e-07 $X=15710 $Y=2177 $D=616
M90 148 33 vss vss hvtnfet l=6e-08 w=1.5e-06 $X=16220 $Y=1125 $D=616
M91 34 clkb 148 vss hvtnfet l=6e-08 w=1.5e-06 $X=16480 $Y=1125 $D=616
M92 vss 34 clkb_int vss hvtnfet l=6e-08 w=1.15e-06 $X=17250 $Y=1120 $D=616
M93 clkb_int 34 vss vss hvtnfet l=6e-08 w=1.15e-06 $X=17510 $Y=1120 $D=616
M94 vss 34 clkb_int vss hvtnfet l=6e-08 w=1.15e-06 $X=17770 $Y=1120 $D=616
M95 tm_int<0> 35 vss vss hvtnfet l=6e-08 w=1e-06 $X=18030 $Y=1270 $D=616
M96 vss tm<0> 35 vss hvtnfet l=6e-08 w=5e-07 $X=18540 $Y=1620 $D=616
M97 38 tm<2> vss vss hvtnfet l=6e-08 w=5e-07 $X=18800 $Y=1620 $D=616
M98 vss 38 tm_int<2> vss hvtnfet l=6e-08 w=1e-06 $X=19310 $Y=1120 $D=616
M99 tm_int<6> 39 vss vss hvtnfet l=6e-08 w=1e-06 $X=19570 $Y=1120 $D=616
M100 vss tm<6> 39 vss hvtnfet l=6e-08 w=5e-07 $X=20080 $Y=1620 $D=616
M101 42 tm<3> vss vss hvtnfet l=6e-08 w=5e-07 $X=20340 $Y=1620 $D=616
M102 vss 42 tm_int<3> vss hvtnfet l=6e-08 w=1e-06 $X=20850 $Y=1120 $D=616
M103 tm_int<4> 43 vss vss hvtnfet l=6e-08 w=1e-06 $X=21110 $Y=1120 $D=616
M104 vss tm<4> 43 vss hvtnfet l=6e-08 w=5e-07 $X=21620 $Y=1620 $D=616
M105 46 tm<9> vss vss hvtnfet l=6e-08 w=5e-07 $X=21880 $Y=1620 $D=616
M106 vss 46 tm_int<9> vss hvtnfet l=6e-08 w=1e-06 $X=22390 $Y=1120 $D=616
M107 tm_int<8> 47 vss vss hvtnfet l=6e-08 w=1e-06 $X=22650 $Y=1120 $D=616
M108 vss tm<8> 47 vss hvtnfet l=6e-08 w=5e-07 $X=23160 $Y=1620 $D=616
M109 50 tm<7> vss vss hvtnfet l=6e-08 w=5e-07 $X=23420 $Y=1620 $D=616
M110 vss 50 tm_int<7> vss hvtnfet l=6e-08 w=1e-06 $X=23930 $Y=1120 $D=616
M111 tm_int<5> 51 vss vss hvtnfet l=6e-08 w=1e-06 $X=24190 $Y=1120 $D=616
M112 vss tm<5> 51 vss hvtnfet l=6e-08 w=5e-07 $X=24700 $Y=1620 $D=616
M113 54 tm<1> vss vss hvtnfet l=6e-08 w=5e-07 $X=24960 $Y=1620 $D=616
M114 vss 54 tm_int<1> vss hvtnfet l=6e-08 w=1e-06 $X=25470 $Y=1270 $D=616
M115 clka_int 55 vss vss hvtnfet l=6e-08 w=1.15e-06 $X=25730 $Y=1120 $D=616
M116 vss 55 clka_int vss hvtnfet l=6e-08 w=1.15e-06 $X=25990 $Y=1120 $D=616
M117 clka_int 55 vss vss hvtnfet l=6e-08 w=1.15e-06 $X=26250 $Y=1120 $D=616
M118 149 clka 55 vss hvtnfet l=6e-08 w=1.5e-06 $X=27020 $Y=1125 $D=616
M119 vss 57 149 vss hvtnfet l=6e-08 w=1.5e-06 $X=27280 $Y=1125 $D=616
M120 vss 57 58 vss hvtnfet l=6e-08 w=2.1e-07 $X=27790 $Y=2177 $D=616
M121 120 clka vss vss hvtnfet l=6e-08 w=2.1e-07 $X=28050 $Y=2177 $D=616
M122 59 clka vss vss hvtnfet l=6e-08 w=3.2e-07 $X=28224 $Y=1147 $D=616
M123 57 58 120 vss hvtnfet l=6e-08 w=2.1e-07 $X=28310 $Y=2177 $D=616
M124 122 59 57 vss hvtnfet l=6e-08 w=3.2e-07 $X=28570 $Y=2067 $D=616
M125 vss cena 122 vss hvtnfet l=6e-08 w=3.2e-07 $X=28830 $Y=2067 $D=616
M126 vss wena 62 vss hvtnfet l=6e-08 w=5e-07 $X=29530 $Y=1620 $D=616
M127 wena_int 62 vss vss hvtnfet l=6e-08 w=1e-06 $X=29800 $Y=1120 $D=616
M128 vss 62 wena_int vss hvtnfet l=6e-08 w=1e-06 $X=30060 $Y=1120 $D=616
M129 aa_int<12> 63 vss vss hvtnfet l=6e-08 w=1e-06 $X=30320 $Y=1120 $D=616
M130 vss 63 aa_int<12> vss hvtnfet l=6e-08 w=1e-06 $X=30580 $Y=1120 $D=616
M131 vss aa<12> 63 vss hvtnfet l=6e-08 w=5e-07 $X=31090 $Y=1620 $D=616
M132 66 aa<11> vss vss hvtnfet l=6e-08 w=5e-07 $X=31350 $Y=1620 $D=616
M133 aa_int<11> 66 vss vss hvtnfet l=6e-08 w=1e-06 $X=31860 $Y=1120 $D=616
M134 vss 66 aa_int<11> vss hvtnfet l=6e-08 w=1e-06 $X=32120 $Y=1120 $D=616
M135 aa_int<10> 67 vss vss hvtnfet l=6e-08 w=1e-06 $X=32380 $Y=1120 $D=616
M136 vss 67 aa_int<10> vss hvtnfet l=6e-08 w=1e-06 $X=32640 $Y=1120 $D=616
M137 vss aa<10> 67 vss hvtnfet l=6e-08 w=5e-07 $X=33150 $Y=1620 $D=616
M138 70 aa<9> vss vss hvtnfet l=6e-08 w=5e-07 $X=33410 $Y=1620 $D=616
M139 aa_int<9> 70 vss vss hvtnfet l=6e-08 w=1e-06 $X=33920 $Y=1120 $D=616
M140 vss 70 aa_int<9> vss hvtnfet l=6e-08 w=1e-06 $X=34180 $Y=1120 $D=616
M141 aa_int<8> 71 vss vss hvtnfet l=6e-08 w=1e-06 $X=34440 $Y=1120 $D=616
M142 vss 71 aa_int<8> vss hvtnfet l=6e-08 w=1e-06 $X=34700 $Y=1120 $D=616
M143 vss aa<8> 71 vss hvtnfet l=6e-08 w=5e-07 $X=35210 $Y=1620 $D=616
M144 74 aa<7> vss vss hvtnfet l=6e-08 w=5e-07 $X=35470 $Y=1620 $D=616
M145 aa_int<7> 74 vss vss hvtnfet l=6e-08 w=1e-06 $X=35980 $Y=1120 $D=616
M146 vss 74 aa_int<7> vss hvtnfet l=6e-08 w=1e-06 $X=36240 $Y=1120 $D=616
M147 aa_int<6> 75 vss vss hvtnfet l=6e-08 w=1e-06 $X=36500 $Y=1120 $D=616
M148 vss 75 aa_int<6> vss hvtnfet l=6e-08 w=1e-06 $X=36760 $Y=1120 $D=616
M149 vss aa<6> 75 vss hvtnfet l=6e-08 w=5e-07 $X=37270 $Y=1620 $D=616
M150 78 aa<5> vss vss hvtnfet l=6e-08 w=5e-07 $X=37530 $Y=1620 $D=616
M151 aa_int<5> 78 vss vss hvtnfet l=6e-08 w=1e-06 $X=38040 $Y=1120 $D=616
M152 vss 78 aa_int<5> vss hvtnfet l=6e-08 w=1e-06 $X=38300 $Y=1120 $D=616
M153 aa_int<4> 79 vss vss hvtnfet l=6e-08 w=1e-06 $X=38560 $Y=1120 $D=616
M154 vss 79 aa_int<4> vss hvtnfet l=6e-08 w=1e-06 $X=38820 $Y=1120 $D=616
M155 vss aa<4> 79 vss hvtnfet l=6e-08 w=5e-07 $X=39330 $Y=1620 $D=616
M156 82 aa<3> vss vss hvtnfet l=6e-08 w=5e-07 $X=39590 $Y=1620 $D=616
M157 aa_int<3> 82 vss vss hvtnfet l=6e-08 w=1e-06 $X=40100 $Y=1120 $D=616
M158 vss 82 aa_int<3> vss hvtnfet l=6e-08 w=1e-06 $X=40360 $Y=1120 $D=616
M159 aa_int<2> 83 vss vss hvtnfet l=6e-08 w=1e-06 $X=40620 $Y=1120 $D=616
M160 vss 83 aa_int<2> vss hvtnfet l=6e-08 w=1e-06 $X=40880 $Y=1120 $D=616
M161 vss aa<2> 83 vss hvtnfet l=6e-08 w=5e-07 $X=41390 $Y=1620 $D=616
M162 86 aa<1> vss vss hvtnfet l=6e-08 w=5e-07 $X=41650 $Y=1620 $D=616
M163 aa_int<1> 86 vss vss hvtnfet l=6e-08 w=1e-06 $X=42160 $Y=1120 $D=616
M164 vss 86 aa_int<1> vss hvtnfet l=6e-08 w=1e-06 $X=42420 $Y=1120 $D=616
M165 aa_int<0> 87 vss vss hvtnfet l=6e-08 w=1e-06 $X=42680 $Y=1120 $D=616
M166 vss 87 aa_int<0> vss hvtnfet l=6e-08 w=1e-06 $X=42940 $Y=1120 $D=616
M167 87 aa<0> vss vss hvtnfet l=6e-08 w=5e-07 $X=43210 $Y=1620 $D=616
M168 tie_vss tie_vss vss vss hvtnfet l=6e-08 w=2e-07 $X=43750 $Y=1650 $D=616
M169 vss tie_vdd tie_vss vss hvtnfet l=6e-08 w=2e-07 $X=44010 $Y=1650 $D=616
M170 tie_vss tie_vdd cena_int vss hvtnfet l=6e-08 w=2e-07 $X=44520 $Y=1341 $D=616
M171 cenb_int tie_vdd tie_vss vss hvtnfet l=6e-08 w=2e-07 $X=44780 $Y=1341 $D=616
M172 vdd ab<0> 2 vdd hvtpfet l=6e-08 w=1e-06 $X=290 $Y=2440 $D=636
M173 ab_int<0> 2 vdd vdd hvtpfet l=6e-08 w=2e-06 $X=560 $Y=2440 $D=636
M174 vdd 2 ab_int<0> vdd hvtpfet l=6e-08 w=2e-06 $X=820 $Y=2440 $D=636
M175 ab_int<1> 3 vdd vdd hvtpfet l=6e-08 w=2e-06 $X=1080 $Y=2440 $D=636
M176 vdd 3 ab_int<1> vdd hvtpfet l=6e-08 w=2e-06 $X=1340 $Y=2440 $D=636
M177 vdd ab<1> 3 vdd hvtpfet l=6e-08 w=1e-06 $X=1850 $Y=2440 $D=636
M178 6 ab<2> vdd vdd hvtpfet l=6e-08 w=1e-06 $X=2110 $Y=2440 $D=636
M179 ab_int<2> 6 vdd vdd hvtpfet l=6e-08 w=2e-06 $X=2620 $Y=2440 $D=636
M180 vdd 6 ab_int<2> vdd hvtpfet l=6e-08 w=2e-06 $X=2880 $Y=2440 $D=636
M181 ab_int<3> 7 vdd vdd hvtpfet l=6e-08 w=2e-06 $X=3140 $Y=2440 $D=636
M182 vdd 7 ab_int<3> vdd hvtpfet l=6e-08 w=2e-06 $X=3400 $Y=2440 $D=636
M183 vdd ab<3> 7 vdd hvtpfet l=6e-08 w=1e-06 $X=3910 $Y=2440 $D=636
M184 10 ab<4> vdd vdd hvtpfet l=6e-08 w=1e-06 $X=4170 $Y=2440 $D=636
M185 ab_int<4> 10 vdd vdd hvtpfet l=6e-08 w=2e-06 $X=4680 $Y=2440 $D=636
M186 vdd 10 ab_int<4> vdd hvtpfet l=6e-08 w=2e-06 $X=4940 $Y=2440 $D=636
M187 ab_int<5> 11 vdd vdd hvtpfet l=6e-08 w=2e-06 $X=5200 $Y=2440 $D=636
M188 vdd 11 ab_int<5> vdd hvtpfet l=6e-08 w=2e-06 $X=5460 $Y=2440 $D=636
M189 vdd ab<5> 11 vdd hvtpfet l=6e-08 w=1e-06 $X=5970 $Y=2440 $D=636
M190 14 ab<6> vdd vdd hvtpfet l=6e-08 w=1e-06 $X=6230 $Y=2440 $D=636
M191 ab_int<6> 14 vdd vdd hvtpfet l=6e-08 w=2e-06 $X=6740 $Y=2440 $D=636
M192 vdd 14 ab_int<6> vdd hvtpfet l=6e-08 w=2e-06 $X=7000 $Y=2440 $D=636
M193 ab_int<7> 15 vdd vdd hvtpfet l=6e-08 w=2e-06 $X=7260 $Y=2440 $D=636
M194 vdd 15 ab_int<7> vdd hvtpfet l=6e-08 w=2e-06 $X=7520 $Y=2440 $D=636
M195 vdd ab<7> 15 vdd hvtpfet l=6e-08 w=1e-06 $X=8030 $Y=2440 $D=636
M196 18 ab<8> vdd vdd hvtpfet l=6e-08 w=1e-06 $X=8290 $Y=2440 $D=636
M197 ab_int<8> 18 vdd vdd hvtpfet l=6e-08 w=2e-06 $X=8800 $Y=2440 $D=636
M198 vdd 18 ab_int<8> vdd hvtpfet l=6e-08 w=2e-06 $X=9060 $Y=2440 $D=636
M199 ab_int<9> 19 vdd vdd hvtpfet l=6e-08 w=2e-06 $X=9320 $Y=2440 $D=636
M200 vdd 19 ab_int<9> vdd hvtpfet l=6e-08 w=2e-06 $X=9580 $Y=2440 $D=636
M201 vdd ab<9> 19 vdd hvtpfet l=6e-08 w=1e-06 $X=10090 $Y=2440 $D=636
M202 22 ab<10> vdd vdd hvtpfet l=6e-08 w=1e-06 $X=10350 $Y=2440 $D=636
M203 ab_int<10> 22 vdd vdd hvtpfet l=6e-08 w=2e-06 $X=10860 $Y=2440 $D=636
M204 vdd 22 ab_int<10> vdd hvtpfet l=6e-08 w=2e-06 $X=11120 $Y=2440 $D=636
M205 ab_int<11> 23 vdd vdd hvtpfet l=6e-08 w=2e-06 $X=11380 $Y=2440 $D=636
M206 vdd 23 ab_int<11> vdd hvtpfet l=6e-08 w=2e-06 $X=11640 $Y=2440 $D=636
M207 vdd ab<11> 23 vdd hvtpfet l=6e-08 w=1e-06 $X=12150 $Y=2440 $D=636
M208 26 ab<12> vdd vdd hvtpfet l=6e-08 w=1e-06 $X=12410 $Y=2440 $D=636
M209 ab_int<12> 26 vdd vdd hvtpfet l=6e-08 w=2e-06 $X=12920 $Y=2440 $D=636
M210 vdd 26 ab_int<12> vdd hvtpfet l=6e-08 w=2e-06 $X=13180 $Y=2440 $D=636
M211 wenb_int 27 vdd vdd hvtpfet l=6e-08 w=2e-06 $X=13440 $Y=2440 $D=636
M212 vdd 27 wenb_int vdd hvtpfet l=6e-08 w=2e-06 $X=13700 $Y=2440 $D=636
M213 27 wenb vdd vdd hvtpfet l=6e-08 w=1e-06 $X=13970 $Y=2440 $D=636
M214 150 cenb vdd vdd hvtpfet l=6e-08 w=4.8e-07 $X=14670 $Y=3431 $D=636
M215 33 clkb 150 vdd hvtpfet l=6e-08 w=4.8e-07 $X=14930 $Y=3431 $D=636
M216 107 32 33 vdd hvtpfet l=6e-08 w=3.2e-07 $X=15190 $Y=3431 $D=636
M217 vdd clkb 31 vdd hvtpfet l=6e-08 w=4.8e-07 $X=15276 $Y=4410 $D=636
M218 vdd 31 107 vdd hvtpfet l=6e-08 w=3.2e-07 $X=15450 $Y=3431 $D=636
M219 32 33 vdd vdd hvtpfet l=6e-08 w=3.2e-07 $X=15710 $Y=3431 $D=636
M220 vdd 33 34 vdd hvtpfet l=6e-08 w=1.5e-06 $X=16220 $Y=3390 $D=636
M221 34 clkb vdd vdd hvtpfet l=6e-08 w=1.5e-06 $X=16480 $Y=3390 $D=636
M222 vdd 34 clkb_int vdd hvtpfet l=6e-08 w=2.3e-06 $X=17250 $Y=2590 $D=636
M223 clkb_int 34 vdd vdd hvtpfet l=6e-08 w=2.3e-06 $X=17510 $Y=2590 $D=636
M224 vdd 34 clkb_int vdd hvtpfet l=6e-08 w=2.3e-06 $X=17770 $Y=2590 $D=636
M225 tm_int<0> 35 vdd vdd hvtpfet l=6e-08 w=2e-06 $X=18030 $Y=2590 $D=636
M226 vdd tm<0> 35 vdd hvtpfet l=6e-08 w=1e-06 $X=18540 $Y=2590 $D=636
M227 38 tm<2> vdd vdd hvtpfet l=6e-08 w=1e-06 $X=18800 $Y=2590 $D=636
M228 vdd 38 tm_int<2> vdd hvtpfet l=6e-08 w=2e-06 $X=19310 $Y=2590 $D=636
M229 tm_int<6> 39 vdd vdd hvtpfet l=6e-08 w=2e-06 $X=19570 $Y=2590 $D=636
M230 vdd tm<6> 39 vdd hvtpfet l=6e-08 w=1e-06 $X=20080 $Y=2590 $D=636
M231 42 tm<3> vdd vdd hvtpfet l=6e-08 w=1e-06 $X=20340 $Y=2590 $D=636
M232 vdd 42 tm_int<3> vdd hvtpfet l=6e-08 w=2e-06 $X=20850 $Y=2590 $D=636
M233 tm_int<4> 43 vdd vdd hvtpfet l=6e-08 w=2e-06 $X=21110 $Y=2590 $D=636
M234 vdd tm<4> 43 vdd hvtpfet l=6e-08 w=1e-06 $X=21620 $Y=2590 $D=636
M235 46 tm<9> vdd vdd hvtpfet l=6e-08 w=1e-06 $X=21880 $Y=2590 $D=636
M236 vdd 46 tm_int<9> vdd hvtpfet l=6e-08 w=2e-06 $X=22390 $Y=2590 $D=636
M237 tm_int<8> 47 vdd vdd hvtpfet l=6e-08 w=2e-06 $X=22650 $Y=2590 $D=636
M238 vdd tm<8> 47 vdd hvtpfet l=6e-08 w=1e-06 $X=23160 $Y=2590 $D=636
M239 50 tm<7> vdd vdd hvtpfet l=6e-08 w=1e-06 $X=23420 $Y=2590 $D=636
M240 vdd 50 tm_int<7> vdd hvtpfet l=6e-08 w=2e-06 $X=23930 $Y=2590 $D=636
M241 tm_int<5> 51 vdd vdd hvtpfet l=6e-08 w=2e-06 $X=24190 $Y=2590 $D=636
M242 vdd tm<5> 51 vdd hvtpfet l=6e-08 w=1e-06 $X=24700 $Y=2590 $D=636
M243 54 tm<1> vdd vdd hvtpfet l=6e-08 w=1e-06 $X=24960 $Y=2590 $D=636
M244 vdd 54 tm_int<1> vdd hvtpfet l=6e-08 w=2e-06 $X=25470 $Y=2590 $D=636
M245 clka_int 55 vdd vdd hvtpfet l=6e-08 w=2.3e-06 $X=25730 $Y=2590 $D=636
M246 vdd 55 clka_int vdd hvtpfet l=6e-08 w=2.3e-06 $X=25990 $Y=2590 $D=636
M247 clka_int 55 vdd vdd hvtpfet l=6e-08 w=2.3e-06 $X=26250 $Y=2590 $D=636
M248 vdd clka 55 vdd hvtpfet l=6e-08 w=1.5e-06 $X=27020 $Y=3390 $D=636
M249 55 57 vdd vdd hvtpfet l=6e-08 w=1.5e-06 $X=27280 $Y=3390 $D=636
M250 vdd 57 58 vdd hvtpfet l=6e-08 w=3.2e-07 $X=27790 $Y=3431 $D=636
M251 121 59 vdd vdd hvtpfet l=6e-08 w=3.2e-07 $X=28050 $Y=3431 $D=636
M252 59 clka vdd vdd hvtpfet l=6e-08 w=4.8e-07 $X=28224 $Y=4410 $D=636
M253 57 58 121 vdd hvtpfet l=6e-08 w=3.2e-07 $X=28310 $Y=3431 $D=636
M254 151 clka 57 vdd hvtpfet l=6e-08 w=4.8e-07 $X=28570 $Y=3431 $D=636
M255 vdd cena 151 vdd hvtpfet l=6e-08 w=4.8e-07 $X=28830 $Y=3431 $D=636
M256 vdd wena 62 vdd hvtpfet l=6e-08 w=1e-06 $X=29530 $Y=2440 $D=636
M257 wena_int 62 vdd vdd hvtpfet l=6e-08 w=2e-06 $X=29800 $Y=2440 $D=636
M258 vdd 62 wena_int vdd hvtpfet l=6e-08 w=2e-06 $X=30060 $Y=2440 $D=636
M259 aa_int<12> 63 vdd vdd hvtpfet l=6e-08 w=2e-06 $X=30320 $Y=2440 $D=636
M260 vdd 63 aa_int<12> vdd hvtpfet l=6e-08 w=2e-06 $X=30580 $Y=2440 $D=636
M261 vdd aa<12> 63 vdd hvtpfet l=6e-08 w=1e-06 $X=31090 $Y=2440 $D=636
M262 66 aa<11> vdd vdd hvtpfet l=6e-08 w=1e-06 $X=31350 $Y=2440 $D=636
M263 aa_int<11> 66 vdd vdd hvtpfet l=6e-08 w=2e-06 $X=31860 $Y=2440 $D=636
M264 vdd 66 aa_int<11> vdd hvtpfet l=6e-08 w=2e-06 $X=32120 $Y=2440 $D=636
M265 aa_int<10> 67 vdd vdd hvtpfet l=6e-08 w=2e-06 $X=32380 $Y=2440 $D=636
M266 vdd 67 aa_int<10> vdd hvtpfet l=6e-08 w=2e-06 $X=32640 $Y=2440 $D=636
M267 vdd aa<10> 67 vdd hvtpfet l=6e-08 w=1e-06 $X=33150 $Y=2440 $D=636
M268 70 aa<9> vdd vdd hvtpfet l=6e-08 w=1e-06 $X=33410 $Y=2440 $D=636
M269 aa_int<9> 70 vdd vdd hvtpfet l=6e-08 w=2e-06 $X=33920 $Y=2440 $D=636
M270 vdd 70 aa_int<9> vdd hvtpfet l=6e-08 w=2e-06 $X=34180 $Y=2440 $D=636
M271 aa_int<8> 71 vdd vdd hvtpfet l=6e-08 w=2e-06 $X=34440 $Y=2440 $D=636
M272 vdd 71 aa_int<8> vdd hvtpfet l=6e-08 w=2e-06 $X=34700 $Y=2440 $D=636
M273 vdd aa<8> 71 vdd hvtpfet l=6e-08 w=1e-06 $X=35210 $Y=2440 $D=636
M274 74 aa<7> vdd vdd hvtpfet l=6e-08 w=1e-06 $X=35470 $Y=2440 $D=636
M275 aa_int<7> 74 vdd vdd hvtpfet l=6e-08 w=2e-06 $X=35980 $Y=2440 $D=636
M276 vdd 74 aa_int<7> vdd hvtpfet l=6e-08 w=2e-06 $X=36240 $Y=2440 $D=636
M277 aa_int<6> 75 vdd vdd hvtpfet l=6e-08 w=2e-06 $X=36500 $Y=2440 $D=636
M278 vdd 75 aa_int<6> vdd hvtpfet l=6e-08 w=2e-06 $X=36760 $Y=2440 $D=636
M279 vdd aa<6> 75 vdd hvtpfet l=6e-08 w=1e-06 $X=37270 $Y=2440 $D=636
M280 78 aa<5> vdd vdd hvtpfet l=6e-08 w=1e-06 $X=37530 $Y=2440 $D=636
M281 aa_int<5> 78 vdd vdd hvtpfet l=6e-08 w=2e-06 $X=38040 $Y=2440 $D=636
M282 vdd 78 aa_int<5> vdd hvtpfet l=6e-08 w=2e-06 $X=38300 $Y=2440 $D=636
M283 aa_int<4> 79 vdd vdd hvtpfet l=6e-08 w=2e-06 $X=38560 $Y=2440 $D=636
M284 vdd 79 aa_int<4> vdd hvtpfet l=6e-08 w=2e-06 $X=38820 $Y=2440 $D=636
M285 vdd aa<4> 79 vdd hvtpfet l=6e-08 w=1e-06 $X=39330 $Y=2440 $D=636
M286 82 aa<3> vdd vdd hvtpfet l=6e-08 w=1e-06 $X=39590 $Y=2440 $D=636
M287 aa_int<3> 82 vdd vdd hvtpfet l=6e-08 w=2e-06 $X=40100 $Y=2440 $D=636
M288 vdd 82 aa_int<3> vdd hvtpfet l=6e-08 w=2e-06 $X=40360 $Y=2440 $D=636
M289 aa_int<2> 83 vdd vdd hvtpfet l=6e-08 w=2e-06 $X=40620 $Y=2440 $D=636
M290 vdd 83 aa_int<2> vdd hvtpfet l=6e-08 w=2e-06 $X=40880 $Y=2440 $D=636
M291 vdd aa<2> 83 vdd hvtpfet l=6e-08 w=1e-06 $X=41390 $Y=2440 $D=636
M292 86 aa<1> vdd vdd hvtpfet l=6e-08 w=1e-06 $X=41650 $Y=2440 $D=636
M293 aa_int<1> 86 vdd vdd hvtpfet l=6e-08 w=2e-06 $X=42160 $Y=2440 $D=636
M294 vdd 86 aa_int<1> vdd hvtpfet l=6e-08 w=2e-06 $X=42420 $Y=2440 $D=636
M295 aa_int<0> 87 vdd vdd hvtpfet l=6e-08 w=2e-06 $X=42680 $Y=2440 $D=636
M296 vdd 87 aa_int<0> vdd hvtpfet l=6e-08 w=2e-06 $X=42940 $Y=2440 $D=636
M297 87 aa<0> vdd vdd hvtpfet l=6e-08 w=1e-06 $X=43210 $Y=2440 $D=636
M298 tie_vdd tie_vss vdd vdd hvtpfet l=6e-08 w=2e-07 $X=43750 $Y=2440 $D=636
.ends

************************************************************************
* Library Name: XMC55_DPS
* Cell Name:    xmc55_dps_local_ctrl16
************************************************************************
.SUBCKT xmc55_dps_local_ctrl16 aa<12> aa<11> aa<10> aa<9> aa<8> aa<7> aa<6> 
+ aa<5> aa<4> aa<3> aa<2> aa<1> aa<0> ab<12> ab<11> ab<10> ab<9> ab<8> ab<7> 
+ ab<6> ab<5> ab<4> ab<3> ab<2> ab<1> ab<0> b_pxaa<3> b_pxaa<2> b_pxaa<1> 
+ b_pxaa<0> b_pxab<3> b_pxab<2> b_pxab<1> b_pxab<0> b_pxba_n<7> b_pxba_n<6> 
+ b_pxba_n<5> b_pxba_n<4> b_pxba_n<3> b_pxba_n<2> b_pxba_n<1> b_pxba_n<0> 
+ b_pxbb_n<7> b_pxbb_n<6> b_pxbb_n<5> b_pxbb_n<4> b_pxbb_n<3> b_pxbb_n<2> 
+ b_pxbb_n<1> b_pxbb_n<0> b_pxca_n<7> b_pxca_n<6> b_pxca_n<5> b_pxca_n<4> 
+ b_pxca_n<3> b_pxca_n<2> b_pxca_n<1> b_pxca_n<0> b_pxcb_n<7> b_pxcb_n<6> 
+ b_pxcb_n<5> b_pxcb_n<4> b_pxcb_n<3> b_pxcb_n<2> b_pxcb_n<1> b_pxcb_n<0> cena 
+ cenb clka clkb dbl_pd_n<3> dbl_pd_n<2> dbl_pd_n<1> dbl_pd_n<0> ddqa ddqa_n 
+ ddqb ddqb_n dwla<1> dwla<0> dwlb<1> dwlb<0> l_clk_dqa l_clk_dqa_n l_clk_dqb 
+ l_clk_dqb_n l_lwea l_lweb l_sa_prea_n l_sa_preb_n l_saea_n l_saeb_n lb_ca<3> 
+ lb_ca<2> lb_ca<1> lb_ca<0> lb_cb<3> lb_cb<2> lb_cb<1> lb_cb<0> lb_ma<3> 
+ lb_ma<2> lb_ma<1> lb_ma<0> lb_mb<3> lb_mb<2> lb_mb<1> lb_mb<0> lb_tm_prea_n 
+ lb_tm_preb_n lt_ca<3> lt_ca<2> lt_ca<1> lt_ca<0> lt_cb<3> lt_cb<2> lt_cb<1> 
+ lt_cb<0> lt_ma<3> lt_ma<2> lt_ma<1> lt_ma<0> lt_mb<3> lt_mb<2> lt_mb<1> 
+ lt_mb<0> lt_tm_prea_n lt_tm_preb_n r_clk_dqa r_clk_dqa_n r_clk_dqb 
+ r_clk_dqb_n r_lwea r_lweb r_sa_prea_n r_sa_preb_n r_saea_n r_saeb_n rb_ca<3> 
+ rb_ca<2> rb_ca<1> rb_ca<0> rb_cb<3> rb_cb<2> rb_cb<1> rb_cb<0> rb_ma<3> 
+ rb_ma<2> rb_ma<1> rb_ma<0> rb_mb<3> rb_mb<2> rb_mb<1> rb_mb<0> rb_tm_prea_n 
+ rb_tm_preb_n rt_ca<3> rt_ca<2> rt_ca<1> rt_ca<0> rt_cb<3> rt_cb<2> rt_cb<1> 
+ rt_cb<0> rt_ma<3> rt_ma<2> rt_ma<1> rt_ma<0> rt_mb<3> rt_mb<2> rt_mb<1> 
+ rt_mb<0> rt_tm_prea_n rt_tm_preb_n stclka stclkb t_pxaa<3> t_pxaa<2> 
+ t_pxaa<1> t_pxaa<0> t_pxab<3> t_pxab<2> t_pxab<1> t_pxab<0> t_pxba_n<7> 
+ t_pxba_n<6> t_pxba_n<5> t_pxba_n<4> t_pxba_n<3> t_pxba_n<2> t_pxba_n<1> 
+ t_pxba_n<0> t_pxbb_n<7> t_pxbb_n<6> t_pxbb_n<5> t_pxbb_n<4> t_pxbb_n<3> 
+ t_pxbb_n<2> t_pxbb_n<1> t_pxbb_n<0> t_pxca_n<7> t_pxca_n<6> t_pxca_n<5> 
+ t_pxca_n<4> t_pxca_n<3> t_pxca_n<2> t_pxca_n<1> t_pxca_n<0> t_pxcb_n<7> 
+ t_pxcb_n<6> t_pxcb_n<5> t_pxcb_n<4> t_pxcb_n<3> t_pxcb_n<2> t_pxcb_n<1> 
+ t_pxcb_n<0> tm<9> tm<8> tm<7> tm<6> tm<5> tm<4> tm<3> tm<2> tm<1> tm<0> vdd 
+ vss wena wenb
** N=19585 EP=230 IP=0 FDC=3266
M0 vss 5 15 vss hvtnfet l=6e-08 w=6e-07 $X=965 $Y=37277 $D=616
M1 11 1 vss vss hvtnfet l=6e-08 w=6e-07 $X=1225 $Y=336 $D=616
M2 12 2 vss vss hvtnfet l=6e-08 w=6e-07 $X=1225 $Y=5566 $D=616
M3 13 3 vss vss hvtnfet l=6e-08 w=6e-07 $X=1225 $Y=6796 $D=616
M4 14 4 vss vss hvtnfet l=6e-08 w=6e-07 $X=1225 $Y=12026 $D=616
M5 lb_tm_preb_n 20 vss vss hvtnfet l=6e-08 w=1.287e-06 $X=1225 $Y=13280 $D=616
M6 lt_tm_preb_n 21 vss vss hvtnfet l=6e-08 w=1.287e-06 $X=1225 $Y=20124 $D=616
M7 vss 8 l_clk_dqb vss hvtnfet l=6e-08 w=1.26e-06 $X=1225 $Y=22041 $D=616
M8 vss 9 l_clk_dqb_n vss hvtnfet l=6e-08 w=1.26e-06 $X=1225 $Y=29007 $D=616
M9 l_lweb 10 vss vss hvtnfet l=6e-08 w=1.287e-06 $X=1225 $Y=30897 $D=616
M10 15 5 vss vss hvtnfet l=6e-08 w=6e-07 $X=1225 $Y=37277 $D=616
M11 16 4 vss vss hvtnfet l=6e-08 w=6e-07 $X=1225 $Y=38507 $D=616
M12 17 3 vss vss hvtnfet l=6e-08 w=6e-07 $X=1225 $Y=43737 $D=616
M13 18 6 vss vss hvtnfet l=6e-08 w=6e-07 $X=1225 $Y=44967 $D=616
M14 19 7 vss vss hvtnfet l=6e-08 w=6e-07 $X=1225 $Y=50197 $D=616
M15 vss 20 lb_tm_preb_n vss hvtnfet l=6e-08 w=1.287e-06 $X=1485 $Y=13280 $D=616
M16 vss 21 lt_tm_preb_n vss hvtnfet l=6e-08 w=1.287e-06 $X=1485 $Y=20124 $D=616
M17 l_clk_dqb 8 vss vss hvtnfet l=6e-08 w=1.26e-06 $X=1485 $Y=22041 $D=616
M18 l_clk_dqb_n 9 vss vss hvtnfet l=6e-08 w=1.26e-06 $X=1485 $Y=29007 $D=616
M19 vss 10 l_lweb vss hvtnfet l=6e-08 w=1.287e-06 $X=1485 $Y=30897 $D=616
M20 lb_cb<0> 11 vss vss hvtnfet l=6e-08 w=8.58e-07 $X=1735 $Y=328 $D=616
M21 lb_cb<2> 12 vss vss hvtnfet l=6e-08 w=8.58e-07 $X=1735 $Y=5316 $D=616
M22 lb_mb<0> 13 vss vss hvtnfet l=6e-08 w=8.58e-07 $X=1735 $Y=6788 $D=616
M23 lb_mb<2> 14 vss vss hvtnfet l=6e-08 w=8.58e-07 $X=1735 $Y=11776 $D=616
M24 l_saeb_n 15 vss vss hvtnfet l=6e-08 w=8.58e-07 $X=1735 $Y=37027 $D=616
M25 lt_mb<2> 16 vss vss hvtnfet l=6e-08 w=8.58e-07 $X=1735 $Y=38499 $D=616
M26 lt_mb<0> 17 vss vss hvtnfet l=6e-08 w=8.58e-07 $X=1735 $Y=43487 $D=616
M27 lt_cb<2> 18 vss vss hvtnfet l=6e-08 w=8.58e-07 $X=1735 $Y=44959 $D=616
M28 lt_cb<0> 19 vss vss hvtnfet l=6e-08 w=8.58e-07 $X=1735 $Y=49947 $D=616
M29 vss 8 l_clk_dqb vss hvtnfet l=6e-08 w=1.26e-06 $X=1745 $Y=22041 $D=616
M30 vss 9 l_clk_dqb_n vss hvtnfet l=6e-08 w=1.26e-06 $X=1745 $Y=29007 $D=616
M31 vss 11 lb_cb<0> vss hvtnfet l=6e-08 w=8.58e-07 $X=1995 $Y=328 $D=616
M32 vss 12 lb_cb<2> vss hvtnfet l=6e-08 w=8.58e-07 $X=1995 $Y=5316 $D=616
M33 vss 13 lb_mb<0> vss hvtnfet l=6e-08 w=8.58e-07 $X=1995 $Y=6788 $D=616
M34 vss 14 lb_mb<2> vss hvtnfet l=6e-08 w=8.58e-07 $X=1995 $Y=11776 $D=616
M35 vss 24 20 vss hvtnfet l=6e-08 w=6e-07 $X=1995 $Y=13282 $D=616
M36 vss 25 21 vss hvtnfet l=6e-08 w=6e-07 $X=1995 $Y=20809 $D=616
M37 vss 15 l_saeb_n vss hvtnfet l=6e-08 w=8.58e-07 $X=1995 $Y=37027 $D=616
M38 vss 16 lt_mb<2> vss hvtnfet l=6e-08 w=8.58e-07 $X=1995 $Y=38499 $D=616
M39 vss 17 lt_mb<0> vss hvtnfet l=6e-08 w=8.58e-07 $X=1995 $Y=43487 $D=616
M40 vss 18 lt_cb<2> vss hvtnfet l=6e-08 w=8.58e-07 $X=1995 $Y=44959 $D=616
M41 vss 19 lt_cb<0> vss hvtnfet l=6e-08 w=8.58e-07 $X=1995 $Y=49947 $D=616
M42 8 clkb vss vss hvtnfet l=6e-08 w=1.05e-06 $X=2005 $Y=22251 $D=616
M43 9 23 vss vss hvtnfet l=6e-08 w=1.05e-06 $X=2005 $Y=29007 $D=616
M44 lb_cb<0> 11 vss vss hvtnfet l=6e-08 w=8.58e-07 $X=2255 $Y=328 $D=616
M45 lb_cb<2> 12 vss vss hvtnfet l=6e-08 w=8.58e-07 $X=2255 $Y=5316 $D=616
M46 lb_mb<0> 13 vss vss hvtnfet l=6e-08 w=8.58e-07 $X=2255 $Y=6788 $D=616
M47 lb_mb<2> 14 vss vss hvtnfet l=6e-08 w=8.58e-07 $X=2255 $Y=11776 $D=616
M48 l_saeb_n 15 vss vss hvtnfet l=6e-08 w=8.58e-07 $X=2255 $Y=37027 $D=616
M49 lt_mb<2> 16 vss vss hvtnfet l=6e-08 w=8.58e-07 $X=2255 $Y=38499 $D=616
M50 lt_mb<0> 17 vss vss hvtnfet l=6e-08 w=8.58e-07 $X=2255 $Y=43487 $D=616
M51 lt_cb<2> 18 vss vss hvtnfet l=6e-08 w=8.58e-07 $X=2255 $Y=44959 $D=616
M52 lt_cb<0> 19 vss vss hvtnfet l=6e-08 w=8.58e-07 $X=2255 $Y=49947 $D=616
M53 vss 15 l_saeb_n vss hvtnfet l=6e-08 w=8.58e-07 $X=2515 $Y=37027 $D=616
M54 vss 34 lb_cb<1> vss hvtnfet l=6e-08 w=8.58e-07 $X=2765 $Y=328 $D=616
M55 vss 35 lb_cb<3> vss hvtnfet l=6e-08 w=8.58e-07 $X=2765 $Y=5316 $D=616
M56 vss 36 lb_mb<1> vss hvtnfet l=6e-08 w=8.58e-07 $X=2765 $Y=6788 $D=616
M57 vss 37 lb_mb<3> vss hvtnfet l=6e-08 w=8.58e-07 $X=2765 $Y=11776 $D=616
M58 vss 39 lt_mb<3> vss hvtnfet l=6e-08 w=8.58e-07 $X=2765 $Y=38499 $D=616
M59 vss 40 lt_mb<1> vss hvtnfet l=6e-08 w=8.58e-07 $X=2765 $Y=43487 $D=616